*Heading
File generated by TexGen v3.13.1
************
*** MESH ***
************
*Node
1, 0, 0, -0.2485
2, 0.933333, 0, -0.2485
3, 1.86667, 0, -0.2485
4, 2.8, 0, -0.2485
5, 3.73333, 0, -0.2485
6, 4.66667, 0, -0.2485
7, 5.6, 0, -0.2485
8, 6.53333, 0, -0.2485
9, 7.46667, 0, -0.2485
10, 8.4, 0, -0.2485
11, 9.33333, 0, -0.2485
12, 10.2667, 0, -0.2485
13, 11.2, 0, -0.2485
14, 0, 1.8, -0.2485
15, 0.933333, 1.8, -0.2485
16, 1.86667, 1.8, -0.2485
17, 2.8, 1.8, -0.2485
18, 3.73333, 1.8, -0.2485
19, 4.66667, 1.8, -0.2485
20, 5.6, 1.8, -0.2485
** ... 838 like lines cut
*Element, Type=C3D8
1, 2, 15, 14, 1, 145, 158, 157, 144
2, 3, 16, 15, 2, 146, 159, 158, 145
3, 4, 17, 16, 3, 147, 160, 159, 146
4, 5, 18, 17, 4, 148, 161, 160, 147
5, 6, 19, 18, 5, 149, 162, 161, 148
6, 7, 20, 19, 6, 150, 163, 162, 149
7, 8, 21, 20, 7, 151, 164, 163, 150
8, 9, 22, 21, 8, 152, 165, 164, 151
9, 10, 23, 22, 9, 153, 166, 165, 152
10, 11, 24, 23, 10, 154, 167, 166, 153
11, 12, 25, 24, 11, 155, 168, 167, 154
12, 13, 26, 25, 12, 156, 169, 168, 155
13, 15, 28, 27, 14, 158, 171, 170, 157
14, 16, 29, 28, 15, 159, 172, 171, 158
15, 17, 30, 29, 16, 160, 173, 172, 159
16, 18, 31, 30, 17, 161, 174, 173, 160
17, 19, 32, 31, 18, 162, 175, 174, 161
18, 20, 33, 32, 19, 163, 176, 175, 162
19, 21, 34, 33, 20, 164, 177, 176, 163
20, 22, 35, 34, 21, 165, 178, 177, 164
** ... 580 like lines cut
********************
*** ORIENTATIONS ***
********************
** Orientation vectors
** 1st vector represents the fibre direction
** 2nd vector is an arbitrary vector perpendicular to the first
*Distribution Table, Name=TexGenOrientationVectors
COORD3D,COORD3D
*Distribution, Location=Element, Table=TexGenOrientationVectors, Name=TexGenOrientationVectors, Input=eleven.ori
*Orientation, Name=TexGenOrientations, Definition=coordinates
TexGenOrientationVectors
1, 0
********************
*** ELEMENT SETS ***
********************
** TexGen generates a number of element sets:
** All - Contains all elements
** Matrix - Contains all elements belonging to the matrix
** YarnX - Where X represents the yarn index
*ElSet, ElSet=AllElements, Generate
1, 600, 1
*ElSet, ElSet=Matrix
1, 2, 3, 4, 5, 6, 7, 8, 9, 10, 11, 12, 13, 14, 15, 16
17, 18, 19, 20, 21, 22, 23, 24, 25, 26, 27, 28, 29, 30, 31, 32
33, 34, 35, 36, 37, 38, 39, 40, 41, 42, 43, 44, 45, 46, 47, 48
52, 53, 54, 58, 59, 60, 61, 62, 63, 64, 65, 66, 67, 68, 69, 70
71, 72, 73, 74, 75, 76, 77, 78, 79, 80, 81, 82, 83, 84, 85, 86
87, 88, 89, 90, 91, 92, 93, 94, 95, 96, 97, 98, 99, 100, 101, 102
103, 104, 105, 106, 107, 108, 109, 110, 111, 115, 116, 117, 169, 170, 171, 172
173, 174, 175, 176, 177, 178, 179, 180, 229, 230, 231, 232, 233, 234, 235, 236
237, 238, 239, 240, 409, 410, 411, 412, 413, 414, 415, 416, 417, 418, 419, 420
469, 470, 471, 472, 473, 474, 475, 476, 477, 478, 479, 480, 481, 482, 483, 484
485, 486, 487, 488, 489, 490, 491, 492, 493, 494, 495, 496, 497, 498, 499, 500
501, 502, 503, 504, 505, 506, 507, 508, 509, 510, 511, 512, 513, 514, 515, 516
517, 518, 519, 520, 521, 522, 523, 524, 525, 526, 527, 528, 529, 530, 531, 535
536, 537, 541, 542, 543, 544, 545, 546, 547, 548, 549, 550, 551, 552, 553, 554
555, 556, 557, 558, 559, 560, 561, 562, 563, 564, 565, 566, 567, 568, 569, 570
571, 572, 573, 574, 575, 576, 577, 578, 579, 580, 581, 582, 583, 584, 585, 586
587, 588, 592, 593, 594, 598, 599, 600
*ElSet, ElSet=Yarn0
121, 122, 123, 124, 125, 126, 127, 128, 129, 130, 131, 132, 133, 134, 135, 136
137, 138, 139, 140, 141, 142, 143, 144
*ElSet, ElSet=Yarn1
361, 362, 363, 364, 365, 366, 367, 368, 369, 370, 371, 372, 373, 374, 375, 376
377, 378, 379, 380, 381, 382, 383, 384
*ElSet, ElSet=Yarn2
145, 146, 147, 148, 149, 150, 151, 152, 153, 154, 155, 156, 157, 158, 159, 160
161, 162, 163, 164, 165, 166, 167, 168
*ElSet, ElSet=Yarn3
385, 386, 387, 388, 389, 390, 391, 392, 393, 394, 395, 396, 397, 398, 399, 400
401, 402, 403, 404, 405, 406, 407, 408
*ElSet, ElSet=Yarn4
49, 50, 51, 55, 56, 57, 532, 533, 534, 538, 539, 540
*ElSet, ElSet=Yarn5
181, 182, 183, 184, 185, 186, 187, 188, 189, 190, 191, 192, 193, 194, 195, 196
197, 198, 199, 200, 201, 202, 203, 204
*ElSet, ElSet=Yarn6
421, 422, 423, 424, 425, 426, 427, 428, 429, 430, 431, 432, 433, 434, 435, 436
437, 438, 439, 440, 441, 442, 443, 444
*ElSet, ElSet=Yarn7
205, 206, 207, 208, 209, 210, 211, 212, 213, 214, 215, 216, 217, 218, 219, 220
221, 222, 223, 224, 225, 226, 227, 228
*ElSet, ElSet=Yarn8
445, 446, 447, 448, 449, 450, 451, 452, 453, 454, 455, 456, 457, 458, 459, 460
461, 462, 463, 464, 465, 466, 467, 468
*ElSet, ElSet=Yarn9
112, 113, 114, 118, 119, 120, 589, 590, 591, 595, 596, 597
*ElSet, ElSet=Yarn11
241, 242, 243, 253, 254, 255, 265, 266, 267, 277, 278, 279, 289, 290, 291, 301
302, 303, 313, 314, 315, 325, 326, 327, 337, 338, 339, 349, 350, 351
*ElSet, ElSet=Yarn14
244, 245, 246, 256, 257, 258, 268, 269, 270, 280, 281, 282, 292, 293, 294, 304
305, 306, 316, 317, 318, 328, 329, 330, 340, 341, 342, 352, 353, 354
*ElSet, ElSet=Yarn17
247, 248, 249, 259, 260, 261, 271, 272, 273, 283, 284, 285, 295, 296, 297, 307
308, 309, 319, 320, 321, 331, 332, 333, 343, 344, 345, 355, 356, 357
*ElSet, ElSet=Yarn20
250, 251, 252, 262, 263, 264, 274, 275, 276, 286, 287, 288, 298, 299, 300, 310
311, 312, 322, 323, 324, 334, 335, 336, 346, 347, 348, 358, 359, 360
*****************
*** NODE SETS ***
*****************
** AllNodes - Node set containing all elements
*NSet, NSet=AllNodes, Generate
1, 858, 1
*****************
*** MATERIALS ***
*****************
*Material, Name=Mat0
*Elastic
3e+09, 0.2
*Expansion
6.5e-06
*Material, Name=Mat1
*Elastic, type=ENGINEERING CONSTANTS
2e+11, 1e+10, 1e+10, 0.3, 0.4, 0.4, 5e+09, 5e+09
5e+09
*Expansion, type=ORTHO
-2e-07, 3e-06, 3e-06
*Solid Section, ElSet=Matrix, Material=Mat0
1.0,
*Solid Section, ElSet=Yarn0, Material=Mat1, Orientation=TexGenOrientations
1.0,
*Solid Section, ElSet=Yarn1, Material=Mat1, Orientation=TexGenOrientations
1.0,
*Solid Section, ElSet=Yarn2, Material=Mat1, Orientation=TexGenOrientations
1.0,
*Solid Section, ElSet=Yarn3, Material=Mat1, Orientation=TexGenOrientations
1.0,
*Solid Section, ElSet=Yarn4, Material=Mat1, Orientation=TexGenOrientations
1.0,
*Solid Section, ElSet=Yarn5, Material=Mat1, Orientation=TexGenOrientations
1.0,
*Solid Section, ElSet=Yarn6, Material=Mat1, Orientation=TexGenOrientations
1.0,
*Solid Section, ElSet=Yarn7, Material=Mat1, Orientation=TexGenOrientations
1.0,
*Solid Section, ElSet=Yarn8, Material=Mat1, Orientation=TexGenOrientations
1.0,
*Solid Section, ElSet=Yarn9, Material=Mat1, Orientation=TexGenOrientations
1.0,
*Solid Section, ElSet=Yarn10, Material=Mat1, Orientation=TexGenOrientations
1.0,
*Solid Section, ElSet=Yarn11, Material=Mat1, Orientation=TexGenOrientations
1.0,
*Solid Section, ElSet=Yarn12, Material=Mat1, Orientation=TexGenOrientations
1.0,
*Solid Section, ElSet=Yarn13, Material=Mat1, Orientation=TexGenOrientations
1.0,
*Solid Section, ElSet=Yarn14, Material=Mat1, Orientation=TexGenOrientations
1.0,
*Solid Section, ElSet=Yarn15, Material=Mat1, Orientation=TexGenOrientations
1.0,
*Solid Section, ElSet=Yarn16, Material=Mat1, Orientation=TexGenOrientations
1.0,
*Solid Section, ElSet=Yarn17, Material=Mat1, Orientation=TexGenOrientations
1.0,
*Solid Section, ElSet=Yarn18, Material=Mat1, Orientation=TexGenOrientations
1.0,
*Solid Section, ElSet=Yarn19, Material=Mat1, Orientation=TexGenOrientations
1.0,
*Solid Section, ElSet=Yarn20, Material=Mat1, Orientation=TexGenOrientations
1.0,
*Solid Section, ElSet=Yarn21, Material=Mat1, Orientation=TexGenOrientations
1.0,
************************************
*** PERIODIC BOUNDARY CONDITIONS ***
************************************
*** ConstraintsDriver0 = e_x
*** ConstraintsDriver1 = e_y
*** ConstraintsDriver2 = e_z
*** ConstraintsDriver3 = e_xy
*** ConstraintsDriver4 = e_xz
*** ConstraintsDriver5 = e_yz
*Node
859, 0, 0, 0
*NSet, NSet=ConstraintsDriver0
859
*Node
860, 0, 0, 0
*NSet, NSet=ConstraintsDriver1
860
*Node
861, 0, 0, 0
*NSet, NSet=ConstraintsDriver2
861
*Node
862, 0, 0, 0
*NSet, NSet=ConstraintsDriver3
862
*Node
863, 0, 0, 0
*NSet, NSet=ConstraintsDriver4
863
*Node
864, 0, 0, 0
*NSet, NSet=ConstraintsDriver5
864
*NSet, NSet=FaceA, Unsorted
169, 182, 195, 208, 221, 234, 247, 260, 273, 312, 325, 338, 351, 364, 377, 390
403, 416, 455, 468, 481, 494, 507, 520, 533, 546, 559, 598, 611, 624, 637, 650
663, 676, 689, 702
*NSet, NSet=FaceB, Unsorted
157, 170, 183, 196, 209, 222, 235, 248, 261, 300, 313, 326, 339, 352, 365, 378
391, 404, 443, 456, 469, 482, 495, 508, 521, 534, 547, 586, 599, 612, 625, 638
651, 664, 677, 690
*NSet, NSet=FaceC, Unsorted
275, 276, 277, 278, 279, 280, 281, 282, 283, 284, 285, 418, 419, 420, 421, 422
423, 424, 425, 426, 427, 428, 561, 562, 563, 564, 565, 566, 567, 568, 569, 570
571, 704, 705, 706, 707, 708, 709, 710, 711, 712, 713, 714
*NSet, NSet=FaceD, Unsorted
145, 146, 147, 148, 149, 150, 151, 152, 153, 154, 155, 288, 289, 290, 291, 292
293, 294, 295, 296, 297, 298, 431, 432, 433, 434, 435, 436, 437, 438, 439, 440
441, 574, 575, 576, 577, 578, 579, 580, 581, 582, 583, 584
*NSet, NSet=FaceE, Unsorted
730, 731, 732, 733, 734, 735, 736, 737, 738, 739, 740, 743, 744, 745, 746, 747
748, 749, 750, 751, 752, 753, 756, 757, 758, 759, 760, 761, 762, 763, 764, 765
766, 769, 770, 771, 772, 773, 774, 775, 776, 777, 778, 779, 782, 783, 784, 785
786, 787, 788, 789, 790, 791, 792, 795, 796, 797, 798, 799, 800, 801, 802, 803
804, 805, 808, 809, 810, 811, 812, 813, 814, 815, 816, 817, 818, 821, 822, 823
824, 825, 826, 827, 828, 829, 830, 831, 834, 835, 836, 837, 838, 839, 840, 841
842, 843, 844
*NSet, NSet=FaceF, Unsorted
15, 16, 17, 18, 19, 20, 21, 22, 23, 24, 25, 28, 29, 30, 31, 32
33, 34, 35, 36, 37, 38, 41, 42, 43, 44, 45, 46, 47, 48, 49, 50
51, 54, 55, 56, 57, 58, 59, 60, 61, 62, 63, 64, 67, 68, 69, 70
71, 72, 73, 74, 75, 76, 77, 80, 81, 82, 83, 84, 85, 86, 87, 88
89, 90, 93, 94, 95, 96, 97, 98, 99, 100, 101, 102, 103, 106, 107, 108
109, 110, 111, 112, 113, 114, 115, 116, 119, 120, 121, 122, 123, 124, 125, 126
127, 128, 129
*NSet, NSet=Edge1, Unsorted
144, 287, 430, 573
*NSet, NSet=Edge2, Unsorted
156, 299, 442, 585
*NSet, NSet=Edge3, Unsorted
286, 429, 572, 715
*NSet, NSet=Edge4, Unsorted
274, 417, 560, 703
*NSet, NSet=Edge5, Unsorted
14, 27, 40, 53, 66, 79, 92, 105, 118
*NSet, NSet=Edge6, Unsorted
26, 39, 52, 65, 78, 91, 104, 117, 130
*NSet, NSet=Edge7, Unsorted
741, 754, 767, 780, 793, 806, 819, 832, 845
*NSet, NSet=Edge8, Unsorted
729, 742, 755, 768, 781, 794, 807, 820, 833
*NSet, NSet=Edge9, Unsorted
2, 3, 4, 5, 6, 7, 8, 9, 10, 11, 12
*NSet, NSet=Edge10, Unsorted
132, 133, 134, 135, 136, 137, 138, 139, 140, 141, 142
*NSet, NSet=Edge11, Unsorted
847, 848, 849, 850, 851, 852, 853, 854, 855, 856, 857
*NSet, NSet=Edge12, Unsorted
717, 718, 719, 720, 721, 722, 723, 724, 725, 726, 727
*NSet, NSet=MasterNode1, Unsorted
1
*NSet, NSet=MasterNode2, Unsorted
13
*NSet, NSet=MasterNode3, Unsorted
143
*NSet, NSet=MasterNode4, Unsorted
131
*NSet, NSet=MasterNode5, Unsorted
716
*NSet, NSet=MasterNode6, Unsorted
728
*NSet, NSet=MasterNode7, Unsorted
858
*NSet, NSet=MasterNode8, Unsorted
846
***************************
*** BOUNDARY CONDITIONS ***
***************************
*** Name: Translation stop Vertex 1 Type: Displacement/Rotation
*Boundary
MasterNode1, 1, 1
MasterNode1, 2, 2
MasterNode1, 3, 3

*****************
*** EQUATIONS ***
*****************
*Equation
3
FaceA, 1, 1.0, FaceB, 1, -1.0, ConstraintsDriver0, 1, -11.2
*Equation
2
FaceA, 2, 1.0, FaceB, 2, -1.0
*Equation
2
FaceA, 3, 1.0, FaceB, 3, -1.0
*Equation
3
FaceC, 1, 1.0, FaceD, 1, -1.0, ConstraintsDriver3, 1, -18
*Equation
3
FaceC, 2, 1.0, FaceD, 2, -1.0, ConstraintsDriver1, 1, -18
*Equation
2
FaceC, 3, 1.0, FaceD, 3, -1.0
*Equation
3
FaceE, 1, 1.0, FaceF, 1, -1.0, ConstraintsDriver4, 1, -1.947
*Equation
3
FaceE, 2, 1.0, FaceF, 2, -1.0, ConstraintsDriver5, 1, -1.947
*Equation
3
FaceE, 3, 1.0, FaceF, 3, -1.0, ConstraintsDriver2, 1, -1.947
*Equation
3
Edge2, 1, 1.0, Edge1, 1, -1.0, ConstraintsDriver0, 1, -11.2
*Equation
2
Edge2, 2, 1.0, Edge1, 2, -1.0
*Equation
2
Edge2, 3, 1.0, Edge1, 3, -1.0
*Equation
4
Edge3, 1, 1.0, Edge1, 1, -1.0, ConstraintsDriver0, 1, -11.2, ConstraintsDriver3, 1, -18
*Equation
3
Edge3, 2, 1.0, Edge1, 2, -1.0, ConstraintsDriver1, 1, -18
*Equation
2
Edge3, 3, 1.0, Edge1, 3, -1.0
*Equation
3
Edge4, 1, 1.0, Edge1, 1, -1.0, ConstraintsDriver3, 1, -18
*Equation
3
Edge4, 2, 1.0, Edge1, 2, -1.0, ConstraintsDriver1, 1, -18
*Equation
2
Edge4, 3, 1.0, Edge1, 3, -1.0
*Equation
3
Edge6, 1, 1.0, Edge5, 1, -1.0, ConstraintsDriver0, 1, -11.2
*Equation
2
Edge6, 2, 1.0, Edge5, 2, -1.0
*Equation
2
Edge6, 3, 1.0, Edge5, 3, -1.0
*Equation
4
Edge7, 1, 1.0, Edge5, 1, -1.0, ConstraintsDriver4, 1, -1.947, ConstraintsDriver0, 1, -11.2
*Equation
3
Edge7, 2, 1.0, Edge5, 2, -1.0, ConstraintsDriver5, 1, -1.947
*Equation
3
Edge7, 3, 1.0, Edge5, 3, -1.0, ConstraintsDriver2, 1, -1.947
*Equation
3
Edge8, 1, 1.0, Edge5, 1, -1.0, ConstraintsDriver4, 1, -1.947
*Equation
3
Edge8, 2, 1.0, Edge5, 2, -1.0, ConstraintsDriver5, 1, -1.947
*Equation
3
Edge8, 3, 1.0, Edge5, 3, -1.0, ConstraintsDriver2, 1, -1.947
*Equation
3
Edge10, 1, 1.0, Edge9, 1, -1.0, ConstraintsDriver3, 1, -18
*Equation
3
Edge10, 2, 1.0, Edge9, 2, -1.0, ConstraintsDriver1, 1, -18
*Equation
2
Edge10, 3, 1.0, Edge9, 3, -1.0
*Equation
4
Edge11, 1, 1.0, Edge9, 1, -1.0, ConstraintsDriver3, 1, -18, ConstraintsDriver4, 1, -1.947
*Equation
4
Edge11, 2, 1.0, Edge9, 2, -1.0, ConstraintsDriver1, 1, -18, ConstraintsDriver5, 1, -1.947
*Equation
3
Edge11, 3, 1.0, Edge9, 3, -1.0, ConstraintsDriver2, 1, -1.947
*Equation
3
Edge12, 1, 1.0, Edge9, 1, -1.0, ConstraintsDriver4, 1, -1.947
*Equation
3
Edge12, 2, 1.0, Edge9, 2, -1.0, ConstraintsDriver5, 1, -1.947
*Equation
3
Edge12, 3, 1.0, Edge9, 3, -1.0, ConstraintsDriver2, 1, -1.947
*Equation
3
MasterNode2, 1, 1.0, MasterNode1, 1, -1.0, ConstraintsDriver0, 1, -11.2
*Equation
2
MasterNode2, 2, 1.0, MasterNode1, 2, -1.0
*Equation
2
MasterNode2, 3, 1.0, MasterNode1, 3, -1.0
*Equation
4
MasterNode3, 1, 1.0, MasterNode1, 1, -1.0, ConstraintsDriver0, 1, -11.2, ConstraintsDriver3, 1, -18
*Equation
3
MasterNode3, 2, 1.0, MasterNode1, 2, -1.0, ConstraintsDriver1, 1, -18
*Equation
2
MasterNode3, 3, 1.0, MasterNode1, 3, -1.0
*Equation
3
MasterNode4, 1, 1.0, MasterNode1, 1, -1.0, ConstraintsDriver3, 1, -18
*Equation
3
MasterNode4, 2, 1.0, MasterNode1, 2, -1.0, ConstraintsDriver1, 1, -18
*Equation
2
MasterNode4, 3, 1.0, MasterNode1, 3, -1.0
*Equation
3
MasterNode5, 1, 1.0, MasterNode1, 1, -1.0, ConstraintsDriver4, 1, -1.947
*Equation
3
MasterNode5, 2, 1.0, MasterNode1, 2, -1.0, ConstraintsDriver5, 1, -1.947
*Equation
3
MasterNode5, 3, 1.0, MasterNode1, 3, -1.0, ConstraintsDriver2, 1, -1.947
*Equation
4
MasterNode6, 1, 1.0, MasterNode1, 1, -1.0, ConstraintsDriver4, 1, -1.947, ConstraintsDriver0, 1, -11.2
*Equation
3
MasterNode6, 2, 1.0, MasterNode1, 2, -1.0, ConstraintsDriver5, 1, -1.947
*Equation
3
MasterNode6, 3, 1.0, MasterNode1, 3, -1.0, ConstraintsDriver2, 1, -1.947
*Equation
5
MasterNode7, 1, 1.0, MasterNode1, 1, -1.0, ConstraintsDriver0, 1, -11.2, ConstraintsDriver4, 1, -1.947,
ConstraintsDriver3, 1, -18
*Equation
4
MasterNode7, 2, 1.0, MasterNode1, 2, -1.0, ConstraintsDriver1, 1, -18, ConstraintsDriver5, 1, -1.947
*Equation
3
MasterNode7, 3, 1.0, MasterNode1, 3, -1.0, ConstraintsDriver2, 1, -1.947
*Equation
4
MasterNode8, 1, 1.0, MasterNode1, 1, -1.0, ConstraintsDriver3, 1, -18, ConstraintsDriver4, 1, -1.947
*Equation
4
MasterNode8, 2, 1.0, MasterNode1, 2, -1.0, ConstraintsDriver1, 1, -18, ConstraintsDriver5, 1, -1.947
*Equation
3
MasterNode8, 3, 1.0, MasterNode1, 3, -1.0, ConstraintsDriver2, 1, -1.947
*******************
*** CREATE STEP ***
*******************
*** PREDEFINED FIELDS ***
*** Name: Initial temperature 0C all cells   Type: Temperature ***
*Initial Conditions, type=TEMPERATURE
AllNodes, 0.

*Step, Name=Isothermal linear perturbation step, perturbation
Elastic material property computation
*Static

***********************
*** OUTPUT REQUESTS ***
***********************
*Output, field
*Element Output, directions=YES
S,
*** FIELD OUTPUT: Output Request Fx ***
*Node Output, nset=ConstraintsDriver0
U,
*** FIELD OUTPUT: Output Request Fy ***
*Node Output, nset=ConstraintsDriver1
U,
*** FIELD OUTPUT: Ouput Request Fz ***
*Node Output, nset=ConstraintsDriver2
U,
*** FIELD OUTPUT: Output Request Shear_xy ***
*Node Output, nset=ConstraintsDriver3
U,
*** FIELD OUTPUT: Output Request Shear_zx ***
*Node Output, nset=ConstraintsDriver4
U,
*** FIELD OUTPUT: Output Request Shear_yz ***
*Node Output, nset=ConstraintsDriver5
U,

******************
*** LOAD CASES ***
******************
*Load Case, name=Load0
*Boundary, op=NEW
MasterNode1, 1, 1
MasterNode1, 2, 2
MasterNode1, 3, 3
*Cload
ConstraintsDriver0, 1, 392.515
*End Load Case

*Load Case, name=Load1
*Boundary, op=NEW
MasterNode1, 1, 1
MasterNode1, 2, 2
MasterNode1, 3, 3
*Cload
ConstraintsDriver1, 1, 392.515
*End Load Case

*Load Case, name=Load2
*Boundary, op=NEW
MasterNode1, 1, 1
MasterNode1, 2, 2
MasterNode1, 3, 3
*Cload
ConstraintsDriver2, 1, 392.515
*End Load Case

*Load Case, name=Load3
*Boundary, op=NEW
MasterNode1, 1, 1
MasterNode1, 2, 2
MasterNode1, 3, 3
*Cload
ConstraintsDriver3, 1, 392.515
*End Load Case

*Load Case, name=Load4
*Boundary, op=NEW
MasterNode1, 1, 1
MasterNode1, 2, 2
MasterNode1, 3, 3
*Cload
ConstraintsDriver4, 1, 392.515
*End Load Case

*Load Case, name=Load5
*Boundary, op=NEW
MasterNode1, 1, 1
MasterNode1, 2, 2
MasterNode1, 3, 3
*Cload
ConstraintsDriver5, 1, 392.515
*End Load Case


*End Step

*** STEP: Thermomechanical step ***
*Step, name=Thermomechanical step, perturbation
Coefficient of Thermal Expansion computation
*Static
*** PREDEFINED FIELDS ***
*** Name: Temperature steady 1C all cells   Type: Temperature ***
*Temperature
AllNodes, 1.
***********************
*** OUTPUT REQUESTS ***
***********************
*Output, field
*Element Output, directions=YES
S,
*** FIELD OUTPUT: Output Request Fx ***
*Node Output, nset=ConstraintsDriver0
U,
*** FIELD OUTPUT: Output Request Fy ***
*Node Output, nset=ConstraintsDriver1
U,
*** FIELD OUTPUT: Output Request Fz ***
*Node Output, nset=ConstraintsDriver2
U,
*End Step
