*Heading
File generated by TexGen v3.13.1
************
*** MESH ***
************
*Node
1, -0.5, 0, -0.5
2, -0.318182, 0, -0.5
3, -0.136364, 0, -0.5
4, 0.0454545, 0, -0.5
5, 0.227273, 0, -0.5
6, 0.409091, 0, -0.5
7, 0.590909, 0, -0.5
8, 0.772727, 0, -0.5
9, 0.954545, 0, -0.5
10, 1.13636, 0, -0.5
11, 1.31818, 0, -0.5
12, 1.5, 0, -0.5
13, -0.5, 0.7, -0.5
14, -0.318182, 0.7, -0.5
15, -0.136364, 0.7, -0.5
16, 0.0454545, 0.7, -0.5
17, 0.227273, 0.7, -0.5
18, 0.409091, 0.7, -0.5
19, 0.590909, 0.7, -0.5
20, 0.772727, 0.7, -0.5
** ... 772 like lines cut
*Element, Type=DC3D8
1, 2, 14, 13, 1, 134, 146, 145, 133
2, 3, 15, 14, 2, 135, 147, 146, 134
3, 4, 16, 15, 3, 136, 148, 147, 135
4, 5, 17, 16, 4, 137, 149, 148, 136
5, 6, 18, 17, 5, 138, 150, 149, 137
6, 7, 19, 18, 6, 139, 151, 150, 138
7, 8, 20, 19, 7, 140, 152, 151, 139
8, 9, 21, 20, 8, 141, 153, 152, 140
9, 10, 22, 21, 9, 142, 154, 153, 141
10, 11, 23, 22, 10, 143, 155, 154, 142
11, 12, 24, 23, 11, 144, 156, 155, 143
12, 14, 26, 25, 13, 146, 158, 157, 145
13, 15, 27, 26, 14, 147, 159, 158, 146
14, 16, 28, 27, 15, 148, 160, 159, 147
15, 17, 29, 28, 16, 149, 161, 160, 148
16, 18, 30, 29, 17, 150, 162, 161, 149
17, 19, 31, 30, 18, 151, 163, 162, 150
18, 20, 32, 31, 19, 152, 164, 163, 151
19, 21, 33, 32, 20, 153, 165, 164, 152
20, 22, 34, 33, 21, 154, 166, 165, 153
** ... 530 like lines cut
********************
*** ORIENTATIONS ***
********************
** Orientation vectors
** 1st vector represents the fibre direction
** 2nd vector is an arbitrary vector perpendicular to the first
*Distribution Table, Name=TexGenOrientationVectors
COORD3D,COORD3D
*Distribution, Location=Element, Table=TexGenOrientationVectors, Name=TexGenOrientationVectors, Input=five1.ori
*Orientation, Name=TexGenOrientations, Definition=coordinates
TexGenOrientationVectors
1, 0
********************
*** ELEMENT SETS ***
********************
** TexGen generates a number of element sets:
** All - Contains all elements
** Matrix - Contains all elements belonging to the matrix
** YarnX - Where X represents the yarn index
*ElSet, ElSet=AllElements, Generate
1, 550, 1
*ElSet, ElSet=Matrix
1, 2, 3, 4, 5, 6, 7, 8, 9, 10, 11, 12, 13, 14, 15, 16
17, 18, 19, 20, 21, 22, 23, 24, 25, 26, 27, 28, 29, 30, 31, 32
33, 34, 35, 36, 37, 38, 39, 40, 41, 42, 43, 44, 45, 46, 47, 48
49, 50, 51, 52, 53, 54, 55, 56, 57, 58, 59, 60, 61, 62, 63, 64
65, 66, 67, 68, 69, 70, 71, 72, 73, 74, 75, 76, 77, 78, 79, 80
81, 82, 83, 84, 85, 86, 87, 88, 89, 90, 91, 92, 93, 94, 95, 96
97, 98, 99, 100, 101, 102, 103, 104, 105, 106, 107, 108, 109, 110, 111, 112
113, 114, 115, 116, 117, 118, 119, 120, 121, 122, 123, 124, 125, 126, 127, 128
129, 130, 131, 132, 133, 134, 135, 136, 137, 138, 139, 140, 141, 142, 143, 144
145, 146, 147, 148, 149, 150, 151, 152, 153, 154, 155, 156, 157, 158, 159, 160
161, 162, 163, 164, 165, 166, 167, 168, 169, 170, 171, 172, 173, 174, 175, 176
177, 178, 179, 180, 181, 182, 183, 184, 185, 186, 187, 188, 189, 190, 191, 192
193, 194, 195, 196, 197, 198, 199, 200, 201, 202, 203, 204, 205, 206, 207, 208
209, 210, 211, 212, 213, 214, 215, 216, 217, 218, 219, 220, 221, 222, 223, 224
225, 226, 227, 228, 229, 230, 231, 232, 233, 234, 235, 236, 237, 238, 239, 240
241, 242, 243, 244, 245, 246, 247, 248, 249, 250, 251, 252, 253, 254, 255, 256
257, 258, 259, 260, 261, 262, 263, 264, 265, 266, 267, 268, 269, 270, 271, 272
273, 274, 275, 276, 277, 278, 279, 280, 281, 282, 283, 284, 285, 286, 287, 288
289, 290, 291, 292, 293, 294, 295, 296, 297, 298, 299, 300, 301, 302, 303, 304
305, 306, 307, 308, 309, 310, 311, 312, 313, 314, 315, 316, 317, 318, 319, 320
** ... 4 like lines cut
*ElSet, ElSet=Yarn0
441, 442, 443, 444, 445, 446, 447, 448, 449, 450, 451, 452, 453, 454, 455, 456
457, 458, 459, 460, 461, 462, 463, 464, 465, 466, 467, 468, 469, 470, 471, 472
473, 474, 475, 476, 477, 478, 479, 480, 481, 482, 483, 484, 485, 486, 487, 488
489, 490, 491, 492, 493, 494, 495
*ElSet, ElSet=Yarn2
507, 508, 509, 510, 511, 512, 513, 514, 515, 516, 517, 518, 519, 520, 521, 522
523, 524, 525, 526, 527, 528, 529, 530, 531, 532, 533, 534, 535, 536, 537, 538
539, 540, 541, 542, 543, 544, 545, 546, 547, 548, 549, 550
*ElSet, ElSet=Yarn10
335, 336, 337, 338, 339, 340, 341, 346, 347, 348, 349, 350, 351, 352, 357, 358
359, 360, 361, 362, 363, 368, 369, 370, 371, 372, 373, 374, 379, 380, 381, 382
383, 384, 385, 390, 391, 392, 393, 394, 395, 396, 401, 402, 403, 404, 405, 406
407, 412, 413, 414, 415, 416, 417, 418, 423, 424, 425, 426, 427, 428, 429, 434
435, 436, 437, 438, 439, 440
*ElSet, ElSet=Yarn19
331, 342, 353, 364, 375, 386, 397, 408, 419, 430
*****************
*** NODE SETS ***
*****************
** AllNodes - Node set containing all elements
*NSet, NSet=AllNodes, Generate
1, 792, 1
*****************
*** MATERIALS ***
*****************
*Material, Name=Mat0
*Elastic
3e+09, 0.2
*Expansion
6.5e-06
*Material, Name=Mat1
*Elastic, type=ENGINEERING CONSTANTS
2e+11, 1e+10, 1e+10, 0.3, 0.4, 0.4, 5e+09, 5e+09
5e+09
*Expansion, type=ORTHO
-2e-07, 3e-06, 3e-06
*Solid Section, ElSet=Matrix, Material=Mat0
1.0,
*Solid Section, ElSet=Yarn0, Material=Mat1, Orientation=TexGenOrientations
1.0,
*Solid Section, ElSet=Yarn1, Material=Mat1, Orientation=TexGenOrientations
1.0,
*Solid Section, ElSet=Yarn2, Material=Mat1, Orientation=TexGenOrientations
1.0,
*Solid Section, ElSet=Yarn3, Material=Mat1, Orientation=TexGenOrientations
1.0,
*Solid Section, ElSet=Yarn4, Material=Mat1, Orientation=TexGenOrientations
1.0,
*Solid Section, ElSet=Yarn5, Material=Mat1, Orientation=TexGenOrientations
1.0,
*Solid Section, ElSet=Yarn6, Material=Mat1, Orientation=TexGenOrientations
1.0,
*Solid Section, ElSet=Yarn7, Material=Mat1, Orientation=TexGenOrientations
1.0,
*Solid Section, ElSet=Yarn8, Material=Mat1, Orientation=TexGenOrientations
1.0,
*Solid Section, ElSet=Yarn9, Material=Mat1, Orientation=TexGenOrientations
1.0,
*Solid Section, ElSet=Yarn10, Material=Mat1, Orientation=TexGenOrientations
1.0,
*Solid Section, ElSet=Yarn11, Material=Mat1, Orientation=TexGenOrientations
1.0,
*Solid Section, ElSet=Yarn12, Material=Mat1, Orientation=TexGenOrientations
1.0,
*Solid Section, ElSet=Yarn13, Material=Mat1, Orientation=TexGenOrientations
1.0,
*Solid Section, ElSet=Yarn14, Material=Mat1, Orientation=TexGenOrientations
1.0,
*Solid Section, ElSet=Yarn15, Material=Mat1, Orientation=TexGenOrientations
1.0,
*Solid Section, ElSet=Yarn16, Material=Mat1, Orientation=TexGenOrientations
1.0,
*Solid Section, ElSet=Yarn17, Material=Mat1, Orientation=TexGenOrientations
1.0,
*Solid Section, ElSet=Yarn18, Material=Mat1, Orientation=TexGenOrientations
1.0,
*Solid Section, ElSet=Yarn19, Material=Mat1, Orientation=TexGenOrientations
1.0,
*Solid Section, ElSet=Yarn20, Material=Mat1, Orientation=TexGenOrientations
1.0,
*Solid Section, ElSet=Yarn21, Material=Mat1, Orientation=TexGenOrientations
1.0,
************************************
*** PERIODIC BOUNDARY CONDITIONS ***
************************************
*** ConstraintsDriver0 = e_x
*** ConstraintsDriver1 = e_y
*** ConstraintsDriver2 = e_z
*** ConstraintsDriver3 = e_xy
*** ConstraintsDriver4 = e_xz
*** ConstraintsDriver5 = e_yz
*Node
793, 0, 0, 0
*NSet, NSet=ConstraintsDriver0
793
*Node
794, 0, 0, 0
*NSet, NSet=ConstraintsDriver1
794
*Node
795, 0, 0, 0
*NSet, NSet=ConstraintsDriver2
795
*Node
796, 0, 0, 0
*NSet, NSet=ConstraintsDriver3
796
*Node
797, 0, 0, 0
*NSet, NSet=ConstraintsDriver4
797
*Node
798, 0, 0, 0
*NSet, NSet=ConstraintsDriver5
798
*NSet, NSet=FaceA, Unsorted
156, 168, 180, 192, 204, 216, 228, 240, 252, 288, 300, 312, 324, 336, 348, 360
372, 384, 420, 432, 444, 456, 468, 480, 492, 504, 516, 552, 564, 576, 588, 600
612, 624, 636, 648
*NSet, NSet=FaceB, Unsorted
145, 157, 169, 181, 193, 205, 217, 229, 241, 277, 289, 301, 313, 325, 337, 349
361, 373, 409, 421, 433, 445, 457, 469, 481, 493, 505, 541, 553, 565, 577, 589
601, 613, 625, 637
*NSet, NSet=FaceC, Unsorted
254, 255, 256, 257, 258, 259, 260, 261, 262, 263, 386, 387, 388, 389, 390, 391
392, 393, 394, 395, 518, 519, 520, 521, 522, 523, 524, 525, 526, 527, 650, 651
652, 653, 654, 655, 656, 657, 658, 659
*NSet, NSet=FaceD, Unsorted
134, 135, 136, 137, 138, 139, 140, 141, 142, 143, 266, 267, 268, 269, 270, 271
272, 273, 274, 275, 398, 399, 400, 401, 402, 403, 404, 405, 406, 407, 530, 531
532, 533, 534, 535, 536, 537, 538, 539
*NSet, NSet=FaceE, Unsorted
674, 675, 676, 677, 678, 679, 680, 681, 682, 683, 686, 687, 688, 689, 690, 691
692, 693, 694, 695, 698, 699, 700, 701, 702, 703, 704, 705, 706, 707, 710, 711
712, 713, 714, 715, 716, 717, 718, 719, 722, 723, 724, 725, 726, 727, 728, 729
730, 731, 734, 735, 736, 737, 738, 739, 740, 741, 742, 743, 746, 747, 748, 749
750, 751, 752, 753, 754, 755, 758, 759, 760, 761, 762, 763, 764, 765, 766, 767
770, 771, 772, 773, 774, 775, 776, 777, 778, 779
*NSet, NSet=FaceF, Unsorted
14, 15, 16, 17, 18, 19, 20, 21, 22, 23, 26, 27, 28, 29, 30, 31
32, 33, 34, 35, 38, 39, 40, 41, 42, 43, 44, 45, 46, 47, 50, 51
52, 53, 54, 55, 56, 57, 58, 59, 62, 63, 64, 65, 66, 67, 68, 69
70, 71, 74, 75, 76, 77, 78, 79, 80, 81, 82, 83, 86, 87, 88, 89
90, 91, 92, 93, 94, 95, 98, 99, 100, 101, 102, 103, 104, 105, 106, 107
110, 111, 112, 113, 114, 115, 116, 117, 118, 119
*NSet, NSet=Edge1, Unsorted
133, 265, 397, 529
*NSet, NSet=Edge2, Unsorted
144, 276, 408, 540
*NSet, NSet=Edge3, Unsorted
264, 396, 528, 660
*NSet, NSet=Edge4, Unsorted
253, 385, 517, 649
*NSet, NSet=Edge5, Unsorted
13, 25, 37, 49, 61, 73, 85, 97, 109
*NSet, NSet=Edge6, Unsorted
24, 36, 48, 60, 72, 84, 96, 108, 120
*NSet, NSet=Edge7, Unsorted
684, 696, 708, 720, 732, 744, 756, 768, 780
*NSet, NSet=Edge8, Unsorted
673, 685, 697, 709, 721, 733, 745, 757, 769
*NSet, NSet=Edge9, Unsorted
2, 3, 4, 5, 6, 7, 8, 9, 10, 11
*NSet, NSet=Edge10, Unsorted
122, 123, 124, 125, 126, 127, 128, 129, 130, 131
*NSet, NSet=Edge11, Unsorted
782, 783, 784, 785, 786, 787, 788, 789, 790, 791
*NSet, NSet=Edge12, Unsorted
662, 663, 664, 665, 666, 667, 668, 669, 670, 671
*NSet, NSet=MasterNode1, Unsorted
1
*NSet, NSet=MasterNode2, Unsorted
12
*NSet, NSet=MasterNode3, Unsorted
132
*NSet, NSet=MasterNode4, Unsorted
121
*NSet, NSet=MasterNode5, Unsorted
661
*NSet, NSet=MasterNode6, Unsorted
672
*NSet, NSet=MasterNode7, Unsorted
792
*NSet, NSet=MasterNode8, Unsorted
781
***************************
*** BOUNDARY CONDITIONS ***
***************************
*** Name: Translation stop Vertex 1 Type: Displacement/Rotation
*Boundary
MasterNode1, 1, 1
MasterNode1, 2, 2
MasterNode1, 3, 3

*****************
*** EQUATIONS ***
*****************
*Equation
3
FaceA, 1, 1.0, FaceB, 1, -1.0, ConstraintsDriver0, 1, -2
*Equation
2
FaceA, 2, 1.0, FaceB, 2, -1.0
*Equation
2
FaceA, 3, 1.0, FaceB, 3, -1.0
*Equation
3
FaceC, 1, 1.0, FaceD, 1, -1.0, ConstraintsDriver3, 1, -7
*Equation
3
FaceC, 2, 1.0, FaceD, 2, -1.0, ConstraintsDriver1, 1, -7
*Equation
2
FaceC, 3, 1.0, FaceD, 3, -1.0
*Equation
3
FaceE, 1, 1.0, FaceF, 1, -1.0, ConstraintsDriver4, 1, -1
*Equation
3
FaceE, 2, 1.0, FaceF, 2, -1.0, ConstraintsDriver5, 1, -1
*Equation
3
FaceE, 3, 1.0, FaceF, 3, -1.0, ConstraintsDriver2, 1, -1
*Equation
3
Edge2, 1, 1.0, Edge1, 1, -1.0, ConstraintsDriver0, 1, -2
*Equation
2
Edge2, 2, 1.0, Edge1, 2, -1.0
*Equation
2
Edge2, 3, 1.0, Edge1, 3, -1.0
*Equation
4
Edge3, 1, 1.0, Edge1, 1, -1.0, ConstraintsDriver0, 1, -2, ConstraintsDriver3, 1, -7
*Equation
3
Edge3, 2, 1.0, Edge1, 2, -1.0, ConstraintsDriver1, 1, -7
*Equation
2
Edge3, 3, 1.0, Edge1, 3, -1.0
*Equation
3
Edge4, 1, 1.0, Edge1, 1, -1.0, ConstraintsDriver3, 1, -7
*Equation
3
Edge4, 2, 1.0, Edge1, 2, -1.0, ConstraintsDriver1, 1, -7
*Equation
2
Edge4, 3, 1.0, Edge1, 3, -1.0
*Equation
3
Edge6, 1, 1.0, Edge5, 1, -1.0, ConstraintsDriver0, 1, -2
*Equation
2
Edge6, 2, 1.0, Edge5, 2, -1.0
*Equation
2
Edge6, 3, 1.0, Edge5, 3, -1.0
*Equation
4
Edge7, 1, 1.0, Edge5, 1, -1.0, ConstraintsDriver4, 1, -1, ConstraintsDriver0, 1, -2
*Equation
3
Edge7, 2, 1.0, Edge5, 2, -1.0, ConstraintsDriver5, 1, -1
*Equation
3
Edge7, 3, 1.0, Edge5, 3, -1.0, ConstraintsDriver2, 1, -1
*Equation
3
Edge8, 1, 1.0, Edge5, 1, -1.0, ConstraintsDriver4, 1, -1
*Equation
3
Edge8, 2, 1.0, Edge5, 2, -1.0, ConstraintsDriver5, 1, -1
*Equation
3
Edge8, 3, 1.0, Edge5, 3, -1.0, ConstraintsDriver2, 1, -1
*Equation
3
Edge10, 1, 1.0, Edge9, 1, -1.0, ConstraintsDriver3, 1, -7
*Equation
3
Edge10, 2, 1.0, Edge9, 2, -1.0, ConstraintsDriver1, 1, -7
*Equation
2
Edge10, 3, 1.0, Edge9, 3, -1.0
*Equation
4
Edge11, 1, 1.0, Edge9, 1, -1.0, ConstraintsDriver3, 1, -7, ConstraintsDriver4, 1, -1
*Equation
4
Edge11, 2, 1.0, Edge9, 2, -1.0, ConstraintsDriver1, 1, -7, ConstraintsDriver5, 1, -1
*Equation
3
Edge11, 3, 1.0, Edge9, 3, -1.0, ConstraintsDriver2, 1, -1
*Equation
3
Edge12, 1, 1.0, Edge9, 1, -1.0, ConstraintsDriver4, 1, -1
*Equation
3
Edge12, 2, 1.0, Edge9, 2, -1.0, ConstraintsDriver5, 1, -1
*Equation
3
Edge12, 3, 1.0, Edge9, 3, -1.0, ConstraintsDriver2, 1, -1
*Equation
3
MasterNode2, 1, 1.0, MasterNode1, 1, -1.0, ConstraintsDriver0, 1, -2
*Equation
2
MasterNode2, 2, 1.0, MasterNode1, 2, -1.0
*Equation
2
MasterNode2, 3, 1.0, MasterNode1, 3, -1.0
*Equation
4
MasterNode3, 1, 1.0, MasterNode1, 1, -1.0, ConstraintsDriver0, 1, -2, ConstraintsDriver3, 1, -7
*Equation
3
MasterNode3, 2, 1.0, MasterNode1, 2, -1.0, ConstraintsDriver1, 1, -7
*Equation
2
MasterNode3, 3, 1.0, MasterNode1, 3, -1.0
*Equation
3
MasterNode4, 1, 1.0, MasterNode1, 1, -1.0, ConstraintsDriver3, 1, -7
*Equation
3
MasterNode4, 2, 1.0, MasterNode1, 2, -1.0, ConstraintsDriver1, 1, -7
*Equation
2
MasterNode4, 3, 1.0, MasterNode1, 3, -1.0
*Equation
3
MasterNode5, 1, 1.0, MasterNode1, 1, -1.0, ConstraintsDriver4, 1, -1
*Equation
3
MasterNode5, 2, 1.0, MasterNode1, 2, -1.0, ConstraintsDriver5, 1, -1
*Equation
3
MasterNode5, 3, 1.0, MasterNode1, 3, -1.0, ConstraintsDriver2, 1, -1
*Equation
4
MasterNode6, 1, 1.0, MasterNode1, 1, -1.0, ConstraintsDriver4, 1, -1, ConstraintsDriver0, 1, -2
*Equation
3
MasterNode6, 2, 1.0, MasterNode1, 2, -1.0, ConstraintsDriver5, 1, -1
*Equation
3
MasterNode6, 3, 1.0, MasterNode1, 3, -1.0, ConstraintsDriver2, 1, -1
*Equation
5
MasterNode7, 1, 1.0, MasterNode1, 1, -1.0, ConstraintsDriver0, 1, -2, ConstraintsDriver4, 1, -1,
ConstraintsDriver3, 1, -7
*Equation
4
MasterNode7, 2, 1.0, MasterNode1, 2, -1.0, ConstraintsDriver1, 1, -7, ConstraintsDriver5, 1, -1
*Equation
3
MasterNode7, 3, 1.0, MasterNode1, 3, -1.0, ConstraintsDriver2, 1, -1
*Equation
4
MasterNode8, 1, 1.0, MasterNode1, 1, -1.0, ConstraintsDriver3, 1, -7, ConstraintsDriver4, 1, -1
*Equation
4
MasterNode8, 2, 1.0, MasterNode1, 2, -1.0, ConstraintsDriver1, 1, -7, ConstraintsDriver5, 1, -1
*Equation
3
MasterNode8, 3, 1.0, MasterNode1, 3, -1.0, ConstraintsDriver2, 1, -1
*******************
*** CREATE STEP ***
*******************
*** PREDEFINED FIELDS ***
*** Name: Initial temperature 0C all cells   Type: Temperature ***
*Initial Conditions, type=TEMPERATURE
AllNodes, 0.

*Step, Name=Isothermal linear perturbation step, perturbation
Elastic material property computation
*Static

***********************
*** OUTPUT REQUESTS ***
***********************
*Output, field
*Element Output, directions=YES
S,
*** FIELD OUTPUT: Output Request Fx ***
*Node Output, nset=ConstraintsDriver0
U,
*** FIELD OUTPUT: Output Request Fy ***
*Node Output, nset=ConstraintsDriver1
U,
*** FIELD OUTPUT: Ouput Request Fz ***
*Node Output, nset=ConstraintsDriver2
U,
*** FIELD OUTPUT: Output Request Shear_xy ***
*Node Output, nset=ConstraintsDriver3
U,
*** FIELD OUTPUT: Output Request Shear_zx ***
*Node Output, nset=ConstraintsDriver4
U,
*** FIELD OUTPUT: Output Request Shear_yz ***
*Node Output, nset=ConstraintsDriver5
U,

******************
*** LOAD CASES ***
******************
*Load Case, name=Load0
*Boundary, op=NEW
MasterNode1, 1, 1
MasterNode1, 2, 2
MasterNode1, 3, 3
*Cload
ConstraintsDriver0, 1, 14
*End Load Case

*Load Case, name=Load1
*Boundary, op=NEW
MasterNode1, 1, 1
MasterNode1, 2, 2
MasterNode1, 3, 3
*Cload
ConstraintsDriver1, 1, 14
*End Load Case

*Load Case, name=Load2
*Boundary, op=NEW
MasterNode1, 1, 1
MasterNode1, 2, 2
MasterNode1, 3, 3
*Cload
ConstraintsDriver2, 1, 14
*End Load Case

*Load Case, name=Load3
*Boundary, op=NEW
MasterNode1, 1, 1
MasterNode1, 2, 2
MasterNode1, 3, 3
*Cload
ConstraintsDriver3, 1, 14
*End Load Case

*Load Case, name=Load4
*Boundary, op=NEW
MasterNode1, 1, 1
MasterNode1, 2, 2
MasterNode1, 3, 3
*Cload
ConstraintsDriver4, 1, 14
*End Load Case

*Load Case, name=Load5
*Boundary, op=NEW
MasterNode1, 1, 1
MasterNode1, 2, 2
MasterNode1, 3, 3
*Cload
ConstraintsDriver5, 1, 14
*End Load Case


*End Step

*** STEP: Thermomechanical step ***
*Step, name=Thermomechanical step, perturbation
Coefficient of Thermal Expansion computation
*Static
*** PREDEFINED FIELDS ***
*** Name: Temperature steady 1C all cells   Type: Temperature ***
*Temperature
AllNodes, 1.
***********************
*** OUTPUT REQUESTS ***
***********************
*Output, field
*Element Output, directions=YES
S,
*** FIELD OUTPUT: Output Request Fx ***
*Node Output, nset=ConstraintsDriver0
U,
*** FIELD OUTPUT: Output Request Fy ***
*Node Output, nset=ConstraintsDriver1
U,
*** FIELD OUTPUT: Output Request Fz ***
*Node Output, nset=ConstraintsDriver2
U,
*End Step
*Elset, elset=FaceA11
216, 564, 612, 240, 300, 636, 492, 480, 600, 180, 228, 384, 588, 516, 372, 432,
576, 456, 312, 504, 324, 348, 360, 336, 252, 648, 168, 444, 624, 204, 288, 552,
192, 420, 468, 156,
*Surface, NAME=FaceA1, TYPE=ELEMENT
FaceA11, S4
*Elset, elset=FaceB11
565, 145, 493, 229, 421, 313, 601, 361, 481, 193, 205, 541, 409, 241, 157, 457,
637, 577, 217, 613, 337, 625, 301, 505, 445, 169, 349, 553, 277, 469, 325, 373,
589, 433, 289, 181,
*Surface, NAME=FaceB1, TYPE=ELEMENT
FaceB11, S4
*Elset, elset=FaceE11
707, 719, 758, 725, 755, 676, 677, 723, 726, 730, 753, 682, 692, 770, 688, 698,
741, 737, 700, 761, 779, 691, 710, 713, 774, 680, 724, 750, 778, 728, 736, 746,
738, 748, 765, 763, 683, 762, 754, 766, 675, 760, 716, 752, 706, 690, 775, 764,
703, 678, 772, 739, 718, 699, 701, 731, 693, 773, 705, 714, 681, 702, 715, 686,
776, 771, 679, 740, 759, 717, 689, 695, 747, 694, 767, 712, 711, 743, 735, 674,
751, 734, 777, 749, 722, 727, 742, 704, 729, 687,
*Surface, NAME=FaceE1, TYPE=ELEMENT
FaceE11, S4
*Elset, elset=FaceF11
88, 79, 81, 54, 52, 28, 43, 59, 33, 42, 56, 21, 58, 14, 75, 78,
69, 26, 107, 20, 115, 91, 77, 46, 18, 31, 65, 62, 113, 15, 87, 39,
86, 82, 95, 89, 111, 66, 80, 51, 94, 17, 83, 68, 114, 116, 44, 50,
57, 45, 53, 119, 38, 55, 63, 76, 16, 102, 103, 29, 34, 70, 47, 67,
98, 19, 30, 41, 101, 106, 110, 117, 64, 40, 35, 104, 99, 27, 90, 32,
100, 71, 93, 22, 118, 112, 23, 105, 74, 92,
*Surface, NAME=FaceF1, TYPE=ELEMENT
FaceF11, S4
** MATERIALS
*Material, name=Mat0
*Conductivity, TYPE=ORTHO
401.,
**
*Material, name=Mat1
*Conductivity, TYPE=ORTHO
200.,
**
** PHYSICAL CONSTANTS
**
*Physical Constants, absolute zero=273.15, stefan boltzmann=5.67e-08
** ----------------------------------------------------------------
**
** STEP: Heating Step
**
*Step, name="Heating Step", nlgeom=NO
Apply heat in this step
*Heat Transfer, steady state, deltmx=0.
1., 1., 1e-05, 1.,
**
** BOUNDARY CONDITIONS
**
** Name: Const temp surf 1 Type: Temperature
*Boundary
FaceD, 11, 11, 800.
** Name: Const temp surf2 Type: Temperature
*Boundary
FaceC, 11, 11, 400.
**
** INTERACTIONS
**
** Interaction: Convection 1
*Sfilm
FaceB1, F, 300., 13.
** Interaction: Convection 2
*Sfilm
FaceA1, F, 300., 13.
** Interaction: Convection 3
*Sfilm
FaceE1, F, 300., 13.
** Interaction: Convection 4
*Sfilm
FaceF1, F, 300., 13.
** Interaction: Radiation 1
*Sradiate
FaceB1, R, 300., 0
** Interaction: Radiation 2
*Sradiate
FaceA1, R, 300., 0
** Interaction: Radiation 3
*Sradiate
FaceE1, R, 300., 0
** Interaction: Radiation 4
*Sradiate
FaceF1, R, 300., 0
**
** OUTPUT REQUESTS
**
*Restart, write, frequency=0
**
** FIELD OUTPUT: F-Output-1
**
*Output, field, variable=PRESELECT
*Output, history, frequency=0
*End Step
