*Heading
File generated by TexGen v3.13.1
************
*** MESH ***
************
*Node
1, -0.5, 0, -0.5
2, -0.277778, 0, -0.5
3, -0.0555556, 0, -0.5
4, 0.166667, 0, -0.5
5, 0.388889, 0, -0.5
6, 0.611111, 0, -0.5
7, 0.833333, 0, -0.5
8, 1.05556, 0, -0.5
9, 1.27778, 0, -0.5
10, 1.5, 0, -0.5
11, -0.5, 0.875, -0.5
12, -0.277778, 0.875, -0.5
13, -0.0555556, 0.875, -0.5
14, 0.166667, 0.875, -0.5
15, 0.388889, 0.875, -0.5
16, 0.611111, 0.875, -0.5
17, 0.833333, 0.875, -0.5
18, 1.05556, 0.875, -0.5
19, 1.27778, 0.875, -0.5
20, 1.5, 0.875, -0.5
** ... 520 like lines cut
*Element, Type=DC3D8
1, 2, 12, 11, 1, 92, 102, 101, 91
2, 3, 13, 12, 2, 93, 103, 102, 92
3, 4, 14, 13, 3, 94, 104, 103, 93
4, 5, 15, 14, 4, 95, 105, 104, 94
5, 6, 16, 15, 5, 96, 106, 105, 95
6, 7, 17, 16, 6, 97, 107, 106, 96
7, 8, 18, 17, 7, 98, 108, 107, 97
8, 9, 19, 18, 8, 99, 109, 108, 98
9, 10, 20, 19, 9, 100, 110, 109, 99
10, 12, 22, 21, 11, 102, 112, 111, 101
11, 13, 23, 22, 12, 103, 113, 112, 102
12, 14, 24, 23, 13, 104, 114, 113, 103
13, 15, 25, 24, 14, 105, 115, 114, 104
14, 16, 26, 25, 15, 106, 116, 115, 105
15, 17, 27, 26, 16, 107, 117, 116, 106
16, 18, 28, 27, 17, 108, 118, 117, 107
17, 19, 29, 28, 18, 109, 119, 118, 108
18, 20, 30, 29, 19, 110, 120, 119, 109
19, 22, 32, 31, 21, 112, 122, 121, 111
20, 23, 33, 32, 22, 113, 123, 122, 112
** ... 340 like lines cut
********************
*** ORIENTATIONS ***
********************
** Orientation vectors
** 1st vector represents the fibre direction
** 2nd vector is an arbitrary vector perpendicular to the first
*Distribution Table, Name=TexGenOrientationVectors
COORD3D,COORD3D
*Distribution, Location=Element, Table=TexGenOrientationVectors, Name=TexGenOrientationVectors, Input=four1.ori
*Orientation, Name=TexGenOrientations, Definition=coordinates
TexGenOrientationVectors
1, 0
********************
*** ELEMENT SETS ***
********************
** TexGen generates a number of element sets:
** All - Contains all elements
** Matrix - Contains all elements belonging to the matrix
** YarnX - Where X represents the yarn index
*ElSet, ElSet=AllElements, Generate
1, 360, 1
*ElSet, ElSet=Matrix
1, 2, 3, 4, 5, 6, 7, 8, 9, 10, 11, 12, 13, 14, 15, 16
17, 18, 19, 20, 21, 22, 23, 24, 25, 26, 27, 28, 29, 30, 31, 32
33, 34, 35, 36, 37, 38, 39, 40, 41, 42, 43, 44, 45, 46, 47, 48
49, 50, 51, 52, 53, 54, 55, 56, 57, 58, 59, 60, 61, 62, 63, 64
65, 66, 67, 68, 69, 70, 71, 72, 73, 74, 75, 76, 77, 78, 79, 80
81, 82, 83, 84, 85, 86, 87, 88, 89, 90, 91, 92, 93, 94, 95, 96
97, 98, 99, 100, 101, 102, 103, 104, 105, 106, 107, 108, 109, 110, 111, 112
113, 114, 115, 116, 117, 118, 119, 120, 121, 122, 123, 124, 125, 126, 127, 128
129, 130, 131, 132, 133, 134, 135, 136, 137, 138, 139, 140, 141, 142, 143, 144
145, 146, 147, 148, 149, 150, 151, 152, 153, 154, 155, 156, 157, 158, 159, 160
161, 162, 163, 164, 165, 166, 167, 168, 169, 170, 171, 172, 173, 174, 175, 176
177, 178, 179, 180, 181, 182, 183, 184, 185, 186, 187, 188, 189, 190, 191, 192
193, 194, 195, 196, 197, 198, 199, 200, 201, 202, 203, 204, 205, 206, 207, 208
209, 210, 211, 212, 213, 214, 215, 216, 218, 219, 227, 228, 236, 237, 245, 246
254, 255, 263, 264, 272, 273, 281, 282
*ElSet, ElSet=Yarn0
289, 290, 291, 292, 293, 294, 295, 296, 297, 298, 299, 300, 301, 302, 303, 304
305, 306, 307, 308, 309, 310, 311, 312, 313, 314, 315, 316, 317, 318, 319, 320
321, 322, 323, 324
*ElSet, ElSet=Yarn2
325, 326, 327, 328, 329, 330, 331, 332, 333, 334, 335, 336, 337, 338, 339, 340
341, 342, 343, 344, 345, 346, 347, 348, 349, 350, 351, 352, 353, 354, 355, 356
357, 358, 359, 360
*ElSet, ElSet=Yarn10
220, 221, 222, 223, 224, 225, 229, 230, 231, 232, 233, 234, 238, 239, 240, 241
242, 243, 247, 248, 249, 250, 251, 252, 256, 257, 258, 259, 260, 261, 265, 266
267, 268, 269, 270, 274, 275, 276, 277, 278, 279, 283, 284, 285, 286, 287, 288
*ElSet, ElSet=Yarn19
217, 226, 235, 244, 253, 262, 271, 280
*****************
*** NODE SETS ***
*****************
** AllNodes - Node set containing all elements
*NSet, NSet=AllNodes, Generate
1, 540, 1
*****************
*** MATERIALS ***
*****************
*Material, Name=Mat0
*Elastic
3e+09, 0.2
*Expansion
6.5e-06
*Material, Name=Mat1
*Elastic, type=ENGINEERING CONSTANTS
2e+11, 1e+10, 1e+10, 0.3, 0.4, 0.4, 5e+09, 5e+09
5e+09
*Expansion, type=ORTHO
-2e-07, 3e-06, 3e-06
*Solid Section, ElSet=Matrix, Material=Mat0
1.0,
*Solid Section, ElSet=Yarn0, Material=Mat1, Orientation=TexGenOrientations
1.0,
*Solid Section, ElSet=Yarn1, Material=Mat1, Orientation=TexGenOrientations
1.0,
*Solid Section, ElSet=Yarn2, Material=Mat1, Orientation=TexGenOrientations
1.0,
*Solid Section, ElSet=Yarn3, Material=Mat1, Orientation=TexGenOrientations
1.0,
*Solid Section, ElSet=Yarn4, Material=Mat1, Orientation=TexGenOrientations
1.0,
*Solid Section, ElSet=Yarn5, Material=Mat1, Orientation=TexGenOrientations
1.0,
*Solid Section, ElSet=Yarn6, Material=Mat1, Orientation=TexGenOrientations
1.0,
*Solid Section, ElSet=Yarn7, Material=Mat1, Orientation=TexGenOrientations
1.0,
*Solid Section, ElSet=Yarn8, Material=Mat1, Orientation=TexGenOrientations
1.0,
*Solid Section, ElSet=Yarn9, Material=Mat1, Orientation=TexGenOrientations
1.0,
*Solid Section, ElSet=Yarn10, Material=Mat1, Orientation=TexGenOrientations
1.0,
*Solid Section, ElSet=Yarn11, Material=Mat1, Orientation=TexGenOrientations
1.0,
*Solid Section, ElSet=Yarn12, Material=Mat1, Orientation=TexGenOrientations
1.0,
*Solid Section, ElSet=Yarn13, Material=Mat1, Orientation=TexGenOrientations
1.0,
*Solid Section, ElSet=Yarn14, Material=Mat1, Orientation=TexGenOrientations
1.0,
*Solid Section, ElSet=Yarn15, Material=Mat1, Orientation=TexGenOrientations
1.0,
*Solid Section, ElSet=Yarn16, Material=Mat1, Orientation=TexGenOrientations
1.0,
*Solid Section, ElSet=Yarn17, Material=Mat1, Orientation=TexGenOrientations
1.0,
*Solid Section, ElSet=Yarn18, Material=Mat1, Orientation=TexGenOrientations
1.0,
*Solid Section, ElSet=Yarn19, Material=Mat1, Orientation=TexGenOrientations
1.0,
*Solid Section, ElSet=Yarn20, Material=Mat1, Orientation=TexGenOrientations
1.0,
*Solid Section, ElSet=Yarn21, Material=Mat1, Orientation=TexGenOrientations
1.0,
************************************
*** PERIODIC BOUNDARY CONDITIONS ***
************************************
*** ConstraintsDriver0 = e_x
*** ConstraintsDriver1 = e_y
*** ConstraintsDriver2 = e_z
*** ConstraintsDriver3 = e_xy
*** ConstraintsDriver4 = e_xz
*** ConstraintsDriver5 = e_yz
*Node
541, 0, 0, 0
*NSet, NSet=ConstraintsDriver0
541
*Node
542, 0, 0, 0
*NSet, NSet=ConstraintsDriver1
542
*Node
543, 0, 0, 0
*NSet, NSet=ConstraintsDriver2
543
*Node
544, 0, 0, 0
*NSet, NSet=ConstraintsDriver3
544
*Node
545, 0, 0, 0
*NSet, NSet=ConstraintsDriver4
545
*Node
546, 0, 0, 0
*NSet, NSet=ConstraintsDriver5
546
*NSet, NSet=FaceA, Unsorted
110, 120, 130, 140, 150, 160, 170, 200, 210, 220, 230, 240, 250, 260, 290, 300
310, 320, 330, 340, 350, 380, 390, 400, 410, 420, 430, 440
*NSet, NSet=FaceB, Unsorted
101, 111, 121, 131, 141, 151, 161, 191, 201, 211, 221, 231, 241, 251, 281, 291
301, 311, 321, 331, 341, 371, 381, 391, 401, 411, 421, 431
*NSet, NSet=FaceC, Unsorted
172, 173, 174, 175, 176, 177, 178, 179, 262, 263, 264, 265, 266, 267, 268, 269
352, 353, 354, 355, 356, 357, 358, 359, 442, 443, 444, 445, 446, 447, 448, 449
*NSet, NSet=FaceD, Unsorted
92, 93, 94, 95, 96, 97, 98, 99, 182, 183, 184, 185, 186, 187, 188, 189
272, 273, 274, 275, 276, 277, 278, 279, 362, 363, 364, 365, 366, 367, 368, 369
*NSet, NSet=FaceE, Unsorted
462, 463, 464, 465, 466, 467, 468, 469, 472, 473, 474, 475, 476, 477, 478, 479
482, 483, 484, 485, 486, 487, 488, 489, 492, 493, 494, 495, 496, 497, 498, 499
502, 503, 504, 505, 506, 507, 508, 509, 512, 513, 514, 515, 516, 517, 518, 519
522, 523, 524, 525, 526, 527, 528, 529
*NSet, NSet=FaceF, Unsorted
12, 13, 14, 15, 16, 17, 18, 19, 22, 23, 24, 25, 26, 27, 28, 29
32, 33, 34, 35, 36, 37, 38, 39, 42, 43, 44, 45, 46, 47, 48, 49
52, 53, 54, 55, 56, 57, 58, 59, 62, 63, 64, 65, 66, 67, 68, 69
72, 73, 74, 75, 76, 77, 78, 79
*NSet, NSet=Edge1, Unsorted
91, 181, 271, 361
*NSet, NSet=Edge2, Unsorted
100, 190, 280, 370
*NSet, NSet=Edge3, Unsorted
180, 270, 360, 450
*NSet, NSet=Edge4, Unsorted
171, 261, 351, 441
*NSet, NSet=Edge5, Unsorted
11, 21, 31, 41, 51, 61, 71
*NSet, NSet=Edge6, Unsorted
20, 30, 40, 50, 60, 70, 80
*NSet, NSet=Edge7, Unsorted
470, 480, 490, 500, 510, 520, 530
*NSet, NSet=Edge8, Unsorted
461, 471, 481, 491, 501, 511, 521
*NSet, NSet=Edge9, Unsorted
2, 3, 4, 5, 6, 7, 8, 9
*NSet, NSet=Edge10, Unsorted
82, 83, 84, 85, 86, 87, 88, 89
*NSet, NSet=Edge11, Unsorted
532, 533, 534, 535, 536, 537, 538, 539
*NSet, NSet=Edge12, Unsorted
452, 453, 454, 455, 456, 457, 458, 459
*NSet, NSet=MasterNode1, Unsorted
1
*NSet, NSet=MasterNode2, Unsorted
10
*NSet, NSet=MasterNode3, Unsorted
90
*NSet, NSet=MasterNode4, Unsorted
81
*NSet, NSet=MasterNode5, Unsorted
451
*NSet, NSet=MasterNode6, Unsorted
460
*NSet, NSet=MasterNode7, Unsorted
540
*NSet, NSet=MasterNode8, Unsorted
531
***************************
*** BOUNDARY CONDITIONS ***
***************************
*** Name: Translation stop Vertex 1 Type: Displacement/Rotation
*Boundary
MasterNode1, 1, 1
MasterNode1, 2, 2
MasterNode1, 3, 3

*****************
*** EQUATIONS ***
*****************
*Equation
3
FaceA, 1, 1.0, FaceB, 1, -1.0, ConstraintsDriver0, 1, -2
*Equation
2
FaceA, 2, 1.0, FaceB, 2, -1.0
*Equation
2
FaceA, 3, 1.0, FaceB, 3, -1.0
*Equation
3
FaceC, 1, 1.0, FaceD, 1, -1.0, ConstraintsDriver3, 1, -7
*Equation
3
FaceC, 2, 1.0, FaceD, 2, -1.0, ConstraintsDriver1, 1, -7
*Equation
2
FaceC, 3, 1.0, FaceD, 3, -1.0
*Equation
3
FaceE, 1, 1.0, FaceF, 1, -1.0, ConstraintsDriver4, 1, -1
*Equation
3
FaceE, 2, 1.0, FaceF, 2, -1.0, ConstraintsDriver5, 1, -1
*Equation
3
FaceE, 3, 1.0, FaceF, 3, -1.0, ConstraintsDriver2, 1, -1
*Equation
3
Edge2, 1, 1.0, Edge1, 1, -1.0, ConstraintsDriver0, 1, -2
*Equation
2
Edge2, 2, 1.0, Edge1, 2, -1.0
*Equation
2
Edge2, 3, 1.0, Edge1, 3, -1.0
*Equation
4
Edge3, 1, 1.0, Edge1, 1, -1.0, ConstraintsDriver0, 1, -2, ConstraintsDriver3, 1, -7
*Equation
3
Edge3, 2, 1.0, Edge1, 2, -1.0, ConstraintsDriver1, 1, -7
*Equation
2
Edge3, 3, 1.0, Edge1, 3, -1.0
*Equation
3
Edge4, 1, 1.0, Edge1, 1, -1.0, ConstraintsDriver3, 1, -7
*Equation
3
Edge4, 2, 1.0, Edge1, 2, -1.0, ConstraintsDriver1, 1, -7
*Equation
2
Edge4, 3, 1.0, Edge1, 3, -1.0
*Equation
3
Edge6, 1, 1.0, Edge5, 1, -1.0, ConstraintsDriver0, 1, -2
*Equation
2
Edge6, 2, 1.0, Edge5, 2, -1.0
*Equation
2
Edge6, 3, 1.0, Edge5, 3, -1.0
*Equation
4
Edge7, 1, 1.0, Edge5, 1, -1.0, ConstraintsDriver4, 1, -1, ConstraintsDriver0, 1, -2
*Equation
3
Edge7, 2, 1.0, Edge5, 2, -1.0, ConstraintsDriver5, 1, -1
*Equation
3
Edge7, 3, 1.0, Edge5, 3, -1.0, ConstraintsDriver2, 1, -1
*Equation
3
Edge8, 1, 1.0, Edge5, 1, -1.0, ConstraintsDriver4, 1, -1
*Equation
3
Edge8, 2, 1.0, Edge5, 2, -1.0, ConstraintsDriver5, 1, -1
*Equation
3
Edge8, 3, 1.0, Edge5, 3, -1.0, ConstraintsDriver2, 1, -1
*Equation
3
Edge10, 1, 1.0, Edge9, 1, -1.0, ConstraintsDriver3, 1, -7
*Equation
3
Edge10, 2, 1.0, Edge9, 2, -1.0, ConstraintsDriver1, 1, -7
*Equation
2
Edge10, 3, 1.0, Edge9, 3, -1.0
*Equation
4
Edge11, 1, 1.0, Edge9, 1, -1.0, ConstraintsDriver3, 1, -7, ConstraintsDriver4, 1, -1
*Equation
4
Edge11, 2, 1.0, Edge9, 2, -1.0, ConstraintsDriver1, 1, -7, ConstraintsDriver5, 1, -1
*Equation
3
Edge11, 3, 1.0, Edge9, 3, -1.0, ConstraintsDriver2, 1, -1
*Equation
3
Edge12, 1, 1.0, Edge9, 1, -1.0, ConstraintsDriver4, 1, -1
*Equation
3
Edge12, 2, 1.0, Edge9, 2, -1.0, ConstraintsDriver5, 1, -1
*Equation
3
Edge12, 3, 1.0, Edge9, 3, -1.0, ConstraintsDriver2, 1, -1
*Equation
3
MasterNode2, 1, 1.0, MasterNode1, 1, -1.0, ConstraintsDriver0, 1, -2
*Equation
2
MasterNode2, 2, 1.0, MasterNode1, 2, -1.0
*Equation
2
MasterNode2, 3, 1.0, MasterNode1, 3, -1.0
*Equation
4
MasterNode3, 1, 1.0, MasterNode1, 1, -1.0, ConstraintsDriver0, 1, -2, ConstraintsDriver3, 1, -7
*Equation
3
MasterNode3, 2, 1.0, MasterNode1, 2, -1.0, ConstraintsDriver1, 1, -7
*Equation
2
MasterNode3, 3, 1.0, MasterNode1, 3, -1.0
*Equation
3
MasterNode4, 1, 1.0, MasterNode1, 1, -1.0, ConstraintsDriver3, 1, -7
*Equation
3
MasterNode4, 2, 1.0, MasterNode1, 2, -1.0, ConstraintsDriver1, 1, -7
*Equation
2
MasterNode4, 3, 1.0, MasterNode1, 3, -1.0
*Equation
3
MasterNode5, 1, 1.0, MasterNode1, 1, -1.0, ConstraintsDriver4, 1, -1
*Equation
3
MasterNode5, 2, 1.0, MasterNode1, 2, -1.0, ConstraintsDriver5, 1, -1
*Equation
3
MasterNode5, 3, 1.0, MasterNode1, 3, -1.0, ConstraintsDriver2, 1, -1
*Equation
4
MasterNode6, 1, 1.0, MasterNode1, 1, -1.0, ConstraintsDriver4, 1, -1, ConstraintsDriver0, 1, -2
*Equation
3
MasterNode6, 2, 1.0, MasterNode1, 2, -1.0, ConstraintsDriver5, 1, -1
*Equation
3
MasterNode6, 3, 1.0, MasterNode1, 3, -1.0, ConstraintsDriver2, 1, -1
*Equation
5
MasterNode7, 1, 1.0, MasterNode1, 1, -1.0, ConstraintsDriver0, 1, -2, ConstraintsDriver4, 1, -1,
ConstraintsDriver3, 1, -7
*Equation
4
MasterNode7, 2, 1.0, MasterNode1, 2, -1.0, ConstraintsDriver1, 1, -7, ConstraintsDriver5, 1, -1
*Equation
3
MasterNode7, 3, 1.0, MasterNode1, 3, -1.0, ConstraintsDriver2, 1, -1
*Equation
4
MasterNode8, 1, 1.0, MasterNode1, 1, -1.0, ConstraintsDriver3, 1, -7, ConstraintsDriver4, 1, -1
*Equation
4
MasterNode8, 2, 1.0, MasterNode1, 2, -1.0, ConstraintsDriver1, 1, -7, ConstraintsDriver5, 1, -1
*Equation
3
MasterNode8, 3, 1.0, MasterNode1, 3, -1.0, ConstraintsDriver2, 1, -1
*******************
*** CREATE STEP ***
*******************
*** PREDEFINED FIELDS ***
*** Name: Initial temperature 0ºC all cells   Type: Temperature ***
*Initial Conditions, type=TEMPERATURE
AllNodes, 0.

*Step, Name=Isothermal linear perturbation step, perturbation
Elastic material property computation
*Static

***********************
*** OUTPUT REQUESTS ***
***********************
*Output, field
*Element Output, directions=YES
S,
*** FIELD OUTPUT: Output Request Fx ***
*Node Output, nset=ConstraintsDriver0
U,
*** FIELD OUTPUT: Output Request Fy ***
*Node Output, nset=ConstraintsDriver1
U,
*** FIELD OUTPUT: Ouput Request Fz ***
*Node Output, nset=ConstraintsDriver2
U,
*** FIELD OUTPUT: Output Request Shear_xy ***
*Node Output, nset=ConstraintsDriver3
U,
*** FIELD OUTPUT: Output Request Shear_zx ***
*Node Output, nset=ConstraintsDriver4
U,
*** FIELD OUTPUT: Output Request Shear_yz ***
*Node Output, nset=ConstraintsDriver5
U,

******************
*** LOAD CASES ***
******************
*Load Case, name=Load0
*Boundary, op=NEW
MasterNode1, 1, 1
MasterNode1, 2, 2
MasterNode1, 3, 3
*Cload
ConstraintsDriver0, 1, 14
*End Load Case

*Load Case, name=Load1
*Boundary, op=NEW
MasterNode1, 1, 1
MasterNode1, 2, 2
MasterNode1, 3, 3
*Cload
ConstraintsDriver1, 1, 14
*End Load Case

*Load Case, name=Load2
*Boundary, op=NEW
MasterNode1, 1, 1
MasterNode1, 2, 2
MasterNode1, 3, 3
*Cload
ConstraintsDriver2, 1, 14
*End Load Case

*Load Case, name=Load3
*Boundary, op=NEW
MasterNode1, 1, 1
MasterNode1, 2, 2
MasterNode1, 3, 3
*Cload
ConstraintsDriver3, 1, 14
*End Load Case

*Load Case, name=Load4
*Boundary, op=NEW
MasterNode1, 1, 1
MasterNode1, 2, 2
MasterNode1, 3, 3
*Cload
ConstraintsDriver4, 1, 14
*End Load Case

*Load Case, name=Load5
*Boundary, op=NEW
MasterNode1, 1, 1
MasterNode1, 2, 2
MasterNode1, 3, 3
*Cload
ConstraintsDriver5, 1, 14
*End Load Case


*End Step

*** STEP: Thermomechanical step ***
*Step, name=Thermomechanical step, perturbation
Coefficient of Thermal Expansion computation
*Static
*** PREDEFINED FIELDS ***
*** Name: Temperature steady 1ºC all cells   Type: Temperature ***
*Temperature
AllNodes, 1.
***********************
*** OUTPUT REQUESTS ***
***********************
*Output, field
*Element Output, directions=YES
S,
*** FIELD OUTPUT: Output Request Fx ***
*Node Output, nset=ConstraintsDriver0
U,
*** FIELD OUTPUT: Output Request Fy ***
*Node Output, nset=ConstraintsDriver1
U,
*** FIELD OUTPUT: Output Request Fz ***
*Node Output, nset=ConstraintsDriver2
U,
*End Step
*Elset, elset=FaceA11
430, 240, 300, 220, 390, 320, 310, 380, 170, 130, 110, 250, 200, 140, 400, 340,
150, 160, 290, 230, 410, 330, 260, 120, 210, 350, 420, 440,
*Surface, NAME=FaceA1, TYPE=ELEMENT
FaceA11, S4
*Elset, elset=FaceB11
341, 211, 371, 131, 311, 191, 421, 231, 381, 101, 251, 151, 391, 241, 411, 121,
141, 301, 221, 321, 291, 161, 281, 331, 431, 201, 111, 401,
*Surface, NAME=FaceB1, TYPE=ELEMENT
FaceB11, S4
*Elset, elset=FaceE11
466, 478, 482, 503, 489, 492, 467, 493, 502, 506, 473, 527, 496, 518, 475, 486,
516, 499, 528, 523, 474, 494, 522, 504, 508, 519, 477, 487, 484, 495, 462, 505,
517, 476, 497, 515, 463, 488, 512, 525, 514, 472, 464, 507, 513, 524, 483, 469,
529, 485, 479, 526, 465, 498, 468, 509,
*Surface, NAME=FaceE1, TYPE=ELEMENT
FaceE11, S4
*Elset, elset=FaceF11
46, 47, 36, 67, 17, 18, 79, 68, 54, 62, 65, 72, 19, 52, 28, 12,
15, 44, 43, 37, 57, 59, 45, 73, 64, 48, 53, 35, 33, 38, 49, 55,
27, 42, 39, 56, 58, 63, 32, 14, 75, 78, 69, 25, 22, 26, 16, 24,
13, 66, 29, 34, 23, 74, 77, 76,
*Surface, NAME=FaceF1, TYPE=ELEMENT
FaceF11, S4
** MATERIALS
*Material, name=Mat0
*Conductivity, TYPE=ORTHO
401.,
**
*Material, name=Mat1
*Conductivity, TYPE=ORTHO
200.,
**
** PHYSICAL CONSTANTS
**
*Physical Constants, absolute zero=273.15, stefan boltzmann=5.67e-08
** ----------------------------------------------------------------
**
** STEP: Heating Step
**
*Step, name="Heating Step", nlgeom=NO
Apply heat in this step
*Heat Transfer, steady state, deltmx=0.
1., 1., 1e-05, 1.,
**
** BOUNDARY CONDITIONS
**
** Name: Const temp surf 1 Type: Temperature
*Boundary
FaceD, 11, 11, 800.
** Name: Const temp surf2 Type: Temperature
*Boundary
FaceC, 11, 11, 400.
**
** INTERACTIONS
**
** Interaction: Convection 1
*Sfilm
FaceB1, F, 300., 13.
** Interaction: Convection 2
*Sfilm
FaceA1, F, 300., 13.
** Interaction: Convection 3
*Sfilm
FaceE1, F, 300., 13.
** Interaction: Convection 4
*Sfilm
FaceF1, F, 300., 13.
** Interaction: Radiation 1
*Sradiate
FaceB1, R, 300., 0
** Interaction: Radiation 2
*Sradiate
FaceA1, R, 300., 0
** Interaction: Radiation 3
*Sradiate
FaceE1, R, 300., 0
** Interaction: Radiation 4
*Sradiate
FaceF1, R, 300., 0
**
** OUTPUT REQUESTS
**
*Restart, write, frequency=0
**
** FIELD OUTPUT: F-Output-1
**
*Output, field, variable=PRESELECT
*Output, history, frequency=0
*End Step
