*Heading
File generated by TexGen v3.13.1
************
*** MESH ***
************
*Node
1, -0.5, 0, -0.5
2, 0, 0, -0.5
3, 0.5, 0, -0.5
4, 1, 0, -0.5
5, 1.5, 0, -0.5
6, -0.5, 1.4, -0.5
7, 0, 1.4, -0.5
8, 0.5, 1.4, -0.5
9, 1, 1.4, -0.5
10, 1.5, 1.4, -0.5
11, -0.5, 2.8, -0.5
12, 0, 2.8, -0.5
13, 0.5, 2.8, -0.5
14, 1, 2.8, -0.5
15, 1.5, 2.8, -0.5
16, -0.5, 4.2, -0.5
17, 0, 4.2, -0.5
18, 0.5, 4.2, -0.5
19, 1, 4.2, -0.5
20, 1.5, 4.2, -0.5
** ... 190 like lines cut
*Element, Type=DC3D8
1, 2, 7, 6, 1, 32, 37, 36, 31
2, 3, 8, 7, 2, 33, 38, 37, 32
3, 4, 9, 8, 3, 34, 39, 38, 33
4, 5, 10, 9, 4, 35, 40, 39, 34
5, 7, 12, 11, 6, 37, 42, 41, 36
6, 8, 13, 12, 7, 38, 43, 42, 37
7, 9, 14, 13, 8, 39, 44, 43, 38
8, 10, 15, 14, 9, 40, 45, 44, 39
9, 12, 17, 16, 11, 42, 47, 46, 41
10, 13, 18, 17, 12, 43, 48, 47, 42
11, 14, 19, 18, 13, 44, 49, 48, 43
12, 15, 20, 19, 14, 45, 50, 49, 44
13, 17, 22, 21, 16, 47, 52, 51, 46
14, 18, 23, 22, 17, 48, 53, 52, 47
15, 19, 24, 23, 18, 49, 54, 53, 48
16, 20, 25, 24, 19, 50, 55, 54, 49
17, 22, 27, 26, 21, 52, 57, 56, 51
18, 23, 28, 27, 22, 53, 58, 57, 52
19, 24, 29, 28, 23, 54, 59, 58, 53
20, 25, 30, 29, 24, 55, 60, 59, 54
** ... 100 like lines cut
********************
*** ORIENTATIONS ***
********************
** Orientation vectors
** 1st vector represents the fibre direction
** 2nd vector is an arbitrary vector perpendicular to the first
*Distribution Table, Name=TexGenOrientationVectors
COORD3D,COORD3D
*Distribution, Location=Element, Table=TexGenOrientationVectors, Name=TexGenOrientationVectors, Input=last.ori
*Orientation, Name=TexGenOrientations, Definition=coordinates
TexGenOrientationVectors
1, 0
********************
*** ELEMENT SETS ***
********************
** TexGen generates a number of element sets:
** All - Contains all elements
** Matrix - Contains all elements belonging to the matrix
** YarnX - Where X represents the yarn index
*ElSet, ElSet=AllElements, Generate
1, 120, 1
*ElSet, ElSet=Matrix
1, 2, 3, 4, 5, 6, 7, 8, 9, 10, 11, 12, 13, 14, 15, 16
17, 18, 19, 20, 21, 22, 23, 24, 25, 26, 27, 28, 29, 30, 31, 32
33, 34, 35, 36, 37, 38, 39, 40, 41, 42, 43, 44, 45, 46, 47, 48
49, 50, 51, 52, 53, 54, 55, 56, 57, 58, 59, 60, 81, 82, 83, 84
85, 86, 87, 88, 89, 90, 91, 92, 93, 94, 95, 96, 97, 98, 99, 100
*ElSet, ElSet=Yarn0
101, 102, 103, 104, 105, 106, 107, 108, 109, 110, 111, 112
*ElSet, ElSet=Yarn2
113, 114, 115, 116, 117, 118, 119, 120
*ElSet, ElSet=Yarn10
62, 63, 64, 66, 67, 68, 70, 71, 72, 74, 75, 76, 78, 79, 80
*ElSet, ElSet=Yarn19
61, 65, 69, 73, 77
*****************
*** NODE SETS ***
*****************
** AllNodes - Node set containing all elements
*NSet, NSet=AllNodes, Generate
1, 210, 1
*****************
*Solid Section, ElSet=Matrix, Material=Mat0
1.0,
*Solid Section, ElSet=Yarn0, Material=Mat1, Orientation=TexGenOrientations
1.0,
*Solid Section, ElSet=Yarn1, Material=Mat1, Orientation=TexGenOrientations
1.0,
*Solid Section, ElSet=Yarn2, Material=Mat1, Orientation=TexGenOrientations
1.0,
*Solid Section, ElSet=Yarn3, Material=Mat1, Orientation=TexGenOrientations
1.0,
*Solid Section, ElSet=Yarn4, Material=Mat1, Orientation=TexGenOrientations
1.0,
*Solid Section, ElSet=Yarn5, Material=Mat1, Orientation=TexGenOrientations
1.0,
*Solid Section, ElSet=Yarn6, Material=Mat1, Orientation=TexGenOrientations
1.0,
*Solid Section, ElSet=Yarn7, Material=Mat1, Orientation=TexGenOrientations
1.0,
*Solid Section, ElSet=Yarn8, Material=Mat1, Orientation=TexGenOrientations
1.0,
*Solid Section, ElSet=Yarn9, Material=Mat1, Orientation=TexGenOrientations
1.0,
*Solid Section, ElSet=Yarn10, Material=Mat1, Orientation=TexGenOrientations
1.0,
*Solid Section, ElSet=Yarn11, Material=Mat1, Orientation=TexGenOrientations
1.0,
*Solid Section, ElSet=Yarn12, Material=Mat1, Orientation=TexGenOrientations
1.0,
*Solid Section, ElSet=Yarn13, Material=Mat1, Orientation=TexGenOrientations
1.0,
*Solid Section, ElSet=Yarn14, Material=Mat1, Orientation=TexGenOrientations
1.0,
*Solid Section, ElSet=Yarn15, Material=Mat1, Orientation=TexGenOrientations
1.0,
*Solid Section, ElSet=Yarn16, Material=Mat1, Orientation=TexGenOrientations
1.0,
*Solid Section, ElSet=Yarn17, Material=Mat1, Orientation=TexGenOrientations
1.0,
*Solid Section, ElSet=Yarn18, Material=Mat1, Orientation=TexGenOrientations
1.0,
*Solid Section, ElSet=Yarn19, Material=Mat1, Orientation=TexGenOrientations
1.0,
*Solid Section, ElSet=Yarn20, Material=Mat1, Orientation=TexGenOrientations
1.0,
*Solid Section, ElSet=Yarn21, Material=Mat1, Orientation=TexGenOrientations
1.0,
************************************
*** PERIODIC BOUNDARY CONDITIONS ***
************************************
*** ConstraintsDriver0 = e_x
*** ConstraintsDriver1 = e_y
*** ConstraintsDriver2 = e_z
*** ConstraintsDriver3 = e_xy
*** ConstraintsDriver4 = e_xz
*** ConstraintsDriver5 = e_yz
*Node
211, 0, 0, 0
*NSet, NSet=ConstraintsDriver0
211
*Node
212, 0, 0, 0
*NSet, NSet=ConstraintsDriver1
212
*Node
213, 0, 0, 0
*NSet, NSet=ConstraintsDriver2
213
*Node
214, 0, 0, 0
*NSet, NSet=ConstraintsDriver3
214
*Node
215, 0, 0, 0
*NSet, NSet=ConstraintsDriver4
215
*Node
216, 0, 0, 0
*NSet, NSet=ConstraintsDriver5
216
*NSet, NSet=FaceA, Unsorted
40, 45, 50, 55, 70, 75, 80, 85, 100, 105, 110, 115, 130, 135, 140, 145
160, 165, 170, 175
*NSet, NSet=FaceB, Unsorted
36, 41, 46, 51, 66, 71, 76, 81, 96, 101, 106, 111, 126, 131, 136, 141
156, 161, 166, 171
*NSet, NSet=FaceC, Unsorted
57, 58, 59, 87, 88, 89, 117, 118, 119, 147, 148, 149, 177, 178, 179
*NSet, NSet=FaceD, Unsorted
32, 33, 34, 62, 63, 64, 92, 93, 94, 122, 123, 124, 152, 153, 154
*NSet, NSet=FaceE, Unsorted
187, 188, 189, 192, 193, 194, 197, 198, 199, 202, 203, 204
*NSet, NSet=FaceF, Unsorted
7, 8, 9, 12, 13, 14, 17, 18, 19, 22, 23, 24
*NSet, NSet=Edge1, Unsorted
31, 61, 91, 121, 151
*NSet, NSet=Edge2, Unsorted
35, 65, 95, 125, 155
*NSet, NSet=Edge3, Unsorted
60, 90, 120, 150, 180
*NSet, NSet=Edge4, Unsorted
56, 86, 116, 146, 176
*NSet, NSet=Edge5, Unsorted
6, 11, 16, 21
*NSet, NSet=Edge6, Unsorted
10, 15, 20, 25
*NSet, NSet=Edge7, Unsorted
190, 195, 200, 205
*NSet, NSet=Edge8, Unsorted
186, 191, 196, 201
*NSet, NSet=Edge9, Unsorted
2, 3, 4
*NSet, NSet=Edge10, Unsorted
27, 28, 29
*NSet, NSet=Edge11, Unsorted
207, 208, 209
*NSet, NSet=Edge12, Unsorted
182, 183, 184
*NSet, NSet=MasterNode1, Unsorted
1
*NSet, NSet=MasterNode2, Unsorted
5
*NSet, NSet=MasterNode3, Unsorted
30
*NSet, NSet=MasterNode4, Unsorted
26
*NSet, NSet=MasterNode5, Unsorted
181
*NSet, NSet=MasterNode6, Unsorted
185
*NSet, NSet=MasterNode7, Unsorted
210
*NSet, NSet=MasterNode8, Unsorted
206
***************************
*Elset, elset=FaceA11
40, 45, 50, 55, 70, 75, 80, 85, 100, 105, 110, 115, 130, 135, 140, 145,
160, 165, 170, 175,
*Surface, NAME=FaceA1, TYPE=ELEMENT
FaceA11, S4
*Elset, elset=FaceB11
36, 41, 46, 51, 66, 71, 76, 81, 96, 101, 106, 111, 126, 131, 136, 141,
156, 161, 166, 171,
*Surface, NAME=FaceB1, TYPE=ELEMENT
FaceB11, S4
*Elset, elset=FaceE11
202, 188, 192, 193, 203, 199, 198, 204, 189, 197, 187, 194
*Surface, NAME=FaceE1, TYPE=ELEMENT
FaceE11, S4
*Elset, elset=FaceF11
7, 8, 9, 12, 13, 14, 17, 18, 19, 22, 23, 24,
*Surface, NAME=FaceF1, TYPE=ELEMENT
FaceF11, S4
** MATERIALS
*Material, name=Mat0
*Conductivity, TYPE=ORTHO
401.,
**
*Material, name=Mat1
*Conductivity, TYPE=ORTHO
200.,
**
** PHYSICAL CONSTANTS
**
*Physical Constants, absolute zero=273.15, stefan boltzmann=5.67e-08
** ----------------------------------------------------------------
**
** STEP: Heating Step
**
*Step, name="Heating Step", nlgeom=NO
Apply heat in this step
*Heat Transfer, steady state, deltmx=0.
1., 1., 1e-05, 1.,
**
** BOUNDARY CONDITIONS
**
** Name: Const temp surf 1 Type: Temperature
*Boundary
FaceD, 11, 11, 900.
** Name: Const temp surf2 Type: Temperature
*Boundary
FaceC, 11, 11, 400.
**
** INTERACTIONS
**
** Interaction: Convection 1
*Sfilm
FaceB1, F, 300., 13.
** Interaction: Convection 2
*Sfilm
FaceA1, F, 300., 13.
** Interaction: Convection 3
*Sfilm
FaceE1, F, 300., 13.
** Interaction: Convection 4
*Sfilm
FaceF1, F, 300., 13.
** Interaction: Radiation 1
*Sradiate
FaceB1, R, 300., 0.48
** Interaction: Radiation 2
*Sradiate
FaceA1, R, 300., 0.48
** Interaction: Radiation 3
*Sradiate
FaceE1, R, 300., 0.94
** Interaction: Radiation 4
*Sradiate
FaceF1, R, 300., 0.94
**
** OUTPUT REQUESTS
**
*Restart, write, frequency=0
**
** FIELD OUTPUT: F-Output-1
**
*Output, field, variable=PRESELECT
*Output, history, frequency=0
*End Step
