*Heading
File generated by TexGen v3.13.1
************
*** MESH ***
************
*Node
1, -0.5, 0, -0.5
2, -0.25, 0, -0.5
3, 0, 0, -0.5
4, 0.25, 0, -0.5
5, 0.5, 0, -0.5
6, 0.75, 0, -0.5
7, 1, 0, -0.5
8, 1.25, 0, -0.5
9, 1.5, 0, -0.5
10, -0.5, 0.875, -0.5
11, -0.25, 0.875, -0.5
12, 0, 0.875, -0.5
13, 0.25, 0.875, -0.5
14, 0.5, 0.875, -0.5
15, 0.75, 0.875, -0.5
16, 1, 0.875, -0.5
17, 1.25, 0.875, -0.5
18, 1.5, 0.875, -0.5
19, -0.5, 1.75, -0.5
20, -0.25, 1.75, -0.5
** ... 466 like lines cut
*Element, Type=DC3D8
1, 2, 11, 10, 1, 83, 92, 91, 82
2, 3, 12, 11, 2, 84, 93, 92, 83
3, 4, 13, 12, 3, 85, 94, 93, 84
4, 5, 14, 13, 4, 86, 95, 94, 85
5, 6, 15, 14, 5, 87, 96, 95, 86
6, 7, 16, 15, 6, 88, 97, 96, 87
7, 8, 17, 16, 7, 89, 98, 97, 88
8, 9, 18, 17, 8, 90, 99, 98, 89
9, 11, 20, 19, 10, 92, 101, 100, 91
10, 12, 21, 20, 11, 93, 102, 101, 92
11, 13, 22, 21, 12, 94, 103, 102, 93
12, 14, 23, 22, 13, 95, 104, 103, 94
13, 15, 24, 23, 14, 96, 105, 104, 95
14, 16, 25, 24, 15, 97, 106, 105, 96
15, 17, 26, 25, 16, 98, 107, 106, 97
16, 18, 27, 26, 17, 99, 108, 107, 98
17, 20, 29, 28, 19, 101, 110, 109, 100
18, 21, 30, 29, 20, 102, 111, 110, 101
19, 22, 31, 30, 21, 103, 112, 111, 102
20, 23, 32, 31, 22, 104, 113, 112, 103
** ... 300 like lines cut
********************
*** ORIENTATIONS ***
********************
** Orientation vectors
** 1st vector represents the fibre direction
** 2nd vector is an arbitrary vector perpendicular to the first
*Distribution Table, Name=TexGenOrientationVectors
COORD3D,COORD3D
*Distribution, Location=Element, Table=TexGenOrientationVectors, Name=TexGenOrientationVectors, Input=one.ori
*Orientation, Name=TexGenOrientations, Definition=coordinates
TexGenOrientationVectors
1, 0
********************
*** ELEMENT SETS ***
********************
** TexGen generates a number of element sets:
** All - Contains all elements
** Matrix - Contains all elements belonging to the matrix
** YarnX - Where X represents the yarn index
*ElSet, ElSet=AllElements, Generate
1, 320, 1
*ElSet, ElSet=Matrix
1, 2, 3, 4, 5, 6, 7, 8, 9, 10, 11, 12, 13, 14, 15, 16
17, 18, 19, 20, 21, 22, 23, 24, 25, 26, 27, 28, 29, 30, 31, 32
33, 34, 35, 36, 37, 38, 39, 40, 41, 42, 43, 44, 45, 46, 47, 48
49, 50, 51, 52, 53, 54, 55, 56, 57, 58, 59, 60, 61, 62, 63, 64
65, 66, 67, 68, 69, 70, 71, 72, 73, 74, 75, 76, 77, 78, 79, 80
81, 82, 83, 84, 85, 86, 87, 88, 89, 90, 91, 92, 93, 94, 95, 96
97, 98, 99, 100, 101, 102, 103, 104, 105, 106, 107, 108, 109, 110, 111, 112
113, 114, 115, 116, 117, 118, 119, 120, 121, 122, 123, 124, 125, 126, 127, 128
129, 130, 131, 132, 133, 134, 135, 136, 137, 138, 139, 140, 141, 142, 143, 144
145, 146, 147, 148, 149, 150, 151, 152, 153, 154, 155, 156, 157, 158, 159, 160
161, 162, 163, 164, 165, 166, 167, 168, 169, 170, 171, 172, 173, 174, 175, 176
177, 178, 179, 180, 181, 182, 183, 184, 185, 186, 187, 188, 189, 190, 191, 192
194, 195, 202, 203, 210, 211, 218, 219, 226, 227, 234, 235, 242, 243, 250, 251
*ElSet, ElSet=Yarn0
257, 258, 259, 260, 261, 262, 263, 264, 265, 266, 267, 268, 269, 270, 271, 272
273, 274, 275, 276, 277, 278, 279, 280, 281, 282, 283, 284, 285, 286, 287, 288
*ElSet, ElSet=Yarn2
289, 290, 291, 292, 293, 294, 295, 296, 297, 298, 299, 300, 301, 302, 303, 304
305, 306, 307, 308, 309, 310, 311, 312, 313, 314, 315, 316, 317, 318, 319, 320
*ElSet, ElSet=Yarn10
196, 197, 198, 199, 200, 204, 205, 206, 207, 208, 212, 213, 214, 215, 216, 220
221, 222, 223, 224, 228, 229, 230, 231, 232, 236, 237, 238, 239, 240, 244, 245
246, 247, 248, 252, 253, 254, 255, 256
*ElSet, ElSet=Yarn19
193, 201, 209, 217, 225, 233, 241, 249
*****************
*** NODE SETS ***
*****************
** AllNodes - Node set containing all elements
*NSet, NSet=AllNodes, Generate
1, 486, 1
*****************
*Solid Section, ElSet=Matrix, Material=Mat0
1.0,
*Solid Section, ElSet=Yarn0, Material=Mat1, Orientation=TexGenOrientations
1.0,
*Solid Section, ElSet=Yarn1, Material=Mat1, Orientation=TexGenOrientations
1.0,
*Solid Section, ElSet=Yarn2, Material=Mat1, Orientation=TexGenOrientations
1.0,
*Solid Section, ElSet=Yarn3, Material=Mat1, Orientation=TexGenOrientations
1.0,
*Solid Section, ElSet=Yarn4, Material=Mat1, Orientation=TexGenOrientations
1.0,
*Solid Section, ElSet=Yarn5, Material=Mat1, Orientation=TexGenOrientations
1.0,
*Solid Section, ElSet=Yarn6, Material=Mat1, Orientation=TexGenOrientations
1.0,
*Solid Section, ElSet=Yarn7, Material=Mat1, Orientation=TexGenOrientations
1.0,
*Solid Section, ElSet=Yarn8, Material=Mat1, Orientation=TexGenOrientations
1.0,
*Solid Section, ElSet=Yarn9, Material=Mat1, Orientation=TexGenOrientations
1.0,
*Solid Section, ElSet=Yarn10, Material=Mat1, Orientation=TexGenOrientations
1.0,
*Solid Section, ElSet=Yarn11, Material=Mat1, Orientation=TexGenOrientations
1.0,
*Solid Section, ElSet=Yarn12, Material=Mat1, Orientation=TexGenOrientations
1.0,
*Solid Section, ElSet=Yarn13, Material=Mat1, Orientation=TexGenOrientations
1.0,
*Solid Section, ElSet=Yarn14, Material=Mat1, Orientation=TexGenOrientations
1.0,
*Solid Section, ElSet=Yarn15, Material=Mat1, Orientation=TexGenOrientations
1.0,
*Solid Section, ElSet=Yarn16, Material=Mat1, Orientation=TexGenOrientations
1.0,
*Solid Section, ElSet=Yarn17, Material=Mat1, Orientation=TexGenOrientations
1.0,
*Solid Section, ElSet=Yarn18, Material=Mat1, Orientation=TexGenOrientations
1.0,
*Solid Section, ElSet=Yarn19, Material=Mat1, Orientation=TexGenOrientations
1.0,
*Solid Section, ElSet=Yarn20, Material=Mat1, Orientation=TexGenOrientations
1.0,
*Solid Section, ElSet=Yarn21, Material=Mat1, Orientation=TexGenOrientations
1.0,
************************************
*** PERIODIC BOUNDARY CONDITIONS ***
************************************
*** ConstraintsDriver0 = e_x
*** ConstraintsDriver1 = e_y
*** ConstraintsDriver2 = e_z
*** ConstraintsDriver3 = e_xy
*** ConstraintsDriver4 = e_xz
*** ConstraintsDriver5 = e_yz
*Node
487, 0, 0, 0
*NSet, NSet=ConstraintsDriver0
487
*Node
488, 0, 0, 0
*NSet, NSet=ConstraintsDriver1
488
*Node
489, 0, 0, 0
*NSet, NSet=ConstraintsDriver2
489
*Node
490, 0, 0, 0
*NSet, NSet=ConstraintsDriver3
490
*Node
491, 0, 0, 0
*NSet, NSet=ConstraintsDriver4
491
*Node
492, 0, 0, 0
*NSet, NSet=ConstraintsDriver5
492
*NSet, NSet=FaceA, Unsorted
99, 108, 117, 126, 135, 144, 153, 180, 189, 198, 207, 216, 225, 234, 261, 270
279, 288, 297, 306, 315, 342, 351, 360, 369, 378, 387, 396
*NSet, NSet=FaceB, Unsorted
91, 100, 109, 118, 127, 136, 145, 172, 181, 190, 199, 208, 217, 226, 253, 262
271, 280, 289, 298, 307, 334, 343, 352, 361, 370, 379, 388
*NSet, NSet=FaceC, Unsorted
155, 156, 157, 158, 159, 160, 161, 236, 237, 238, 239, 240, 241, 242, 317, 318
319, 320, 321, 322, 323, 398, 399, 400, 401, 402, 403, 404
*NSet, NSet=FaceD, Unsorted
83, 84, 85, 86, 87, 88, 89, 164, 165, 166, 167, 168, 169, 170, 245, 246
247, 248, 249, 250, 251, 326, 327, 328, 329, 330, 331, 332
*NSet, NSet=FaceE, Unsorted
416, 417, 418, 419, 420, 421, 422, 425, 426, 427, 428, 429, 430, 431, 434, 435
436, 437, 438, 439, 440, 443, 444, 445, 446, 447, 448, 449, 452, 453, 454, 455
456, 457, 458, 461, 462, 463, 464, 465, 466, 467, 470, 471, 472, 473, 474, 475
476
*NSet, NSet=FaceF, Unsorted
11, 12, 13, 14, 15, 16, 17, 20, 21, 22, 23, 24, 25, 26, 29, 30
31, 32, 33, 34, 35, 38, 39, 40, 41, 42, 43, 44, 47, 48, 49, 50
51, 52, 53, 56, 57, 58, 59, 60, 61, 62, 65, 66, 67, 68, 69, 70
71
*NSet, NSet=Edge1, Unsorted
82, 163, 244, 325
*NSet, NSet=Edge2, Unsorted
90, 171, 252, 333
*NSet, NSet=Edge3, Unsorted
162, 243, 324, 405
*NSet, NSet=Edge4, Unsorted
154, 235, 316, 397
*NSet, NSet=Edge5, Unsorted
10, 19, 28, 37, 46, 55, 64
*NSet, NSet=Edge6, Unsorted
18, 27, 36, 45, 54, 63, 72
*NSet, NSet=Edge7, Unsorted
423, 432, 441, 450, 459, 468, 477
*NSet, NSet=Edge8, Unsorted
415, 424, 433, 442, 451, 460, 469
*NSet, NSet=Edge9, Unsorted
2, 3, 4, 5, 6, 7, 8
*NSet, NSet=Edge10, Unsorted
74, 75, 76, 77, 78, 79, 80
*NSet, NSet=Edge11, Unsorted
479, 480, 481, 482, 483, 484, 485
*NSet, NSet=Edge12, Unsorted
407, 408, 409, 410, 411, 412, 413
*NSet, NSet=MasterNode1, Unsorted
1
*NSet, NSet=MasterNode2, Unsorted
9
*NSet, NSet=MasterNode3, Unsorted
81
*NSet, NSet=MasterNode4, Unsorted
73
*NSet, NSet=MasterNode5, Unsorted
406
*NSet, NSet=MasterNode6, Unsorted
414
*NSet, NSet=MasterNode7, Unsorted
486
*NSet, NSet=MasterNode8, Unsorted
478
** MATERIALS
*Material, name=Mat0
*Conductivity, TYPE=ORTHO
401.,
**
*Material, name=Mat1
*Conductivity, TYPE=ORTHO
200.,
**
** PHYSICAL CONSTANTS
**
*Physical Constants, absolute zero=273.15, stefan boltzmann=5.67e-08
** ----------------------------------------------------------------
**
** STEP: Heating Step
**
*Step, name="Heating Step", nlgeom=NO
Apply heat in this step
*Heat Transfer, steady state, deltmx=0.
1., 1., 1e-05, 1.,
**
** BOUNDARY CONDITIONS
**
** Name: Const temp surf 1 Type: Temperature
*Boundary
FaceD, 11, 11, 800.
** Name: Const temp surf2 Type: Temperature
*Boundary
FaceC, 11, 11, 400.
**
** INTERACTIONS
**
** Interaction: Convection 1
*Sfilm
FaceB1, F, 300., 13.
** Interaction: Convection 2
*Sfilm
FaceA1, F, 300., 13.
** Interaction: Convection 3
*Sfilm
FaceE1, F, 300., 13.
** Interaction: Convection 4
*Sfilm
FaceF1, F, 300., 13.
** Interaction: Radiation 1
*Sradiate
FaceB1, R, 300., 0
** Interaction: Radiation 2
*Sradiate
FaceA1, R, 300., 0
** Interaction: Radiation 3
*Sradiate
FaceE1, R, 300., 0
** Interaction: Radiation 4
*Sradiate
FaceF1, R, 300., 0
**
** OUTPUT REQUESTS
**
*Restart, write, frequency=0
**
** FIELD OUTPUT: F-Output-1
**
*Output, field, variable=PRESELECT
*Output, history, frequency=0
*End Step
***************************
