*Heading
File generated by TexGen v3.13.1
************
*** MESH ***
************
*Node
1, -0.5, 0, -0.5
2, -0.333333, 0, -0.5
3, -0.166667, 0, -0.5
4, 0, 0, -0.5
5, 0.166667, 0, -0.5
6, 0.333333, 0, -0.5
7, 0.5, 0, -0.5
8, 0.666667, 0, -0.5
9, 0.833333, 0, -0.5
10, 1, 0, -0.5
11, 1.16667, 0, -0.5
12, 1.33333, 0, -0.5
13, 1.5, 0, -0.5
14, -0.5, 0.7, -0.5
15, -0.333333, 0.7, -0.5
16, -0.166667, 0.7, -0.5
17, 0, 0.7, -0.5
18, 0.166667, 0.7, -0.5
19, 0.333333, 0.7, -0.5
20, 0.5, 0.7, -0.5
** ... 838 like lines cut
*Element, Type=DC3D8
*****************
*** NODE SETS ***
*****************
** AllNodes - Node set containing all elements
*NSet, NSet=AllNodes, Generate
1, 858, 1
*****************
*Solid Section, ElSet=Matrix, Material=Mat0
1.0,
*Solid Section, ElSet=Yarn0, Material=Mat1, Orientation=TexGenOrientations
1.0,
*Solid Section, ElSet=Yarn1, Material=Mat1, Orientation=TexGenOrientations
1.0,
*Solid Section, ElSet=Yarn2, Material=Mat1, Orientation=TexGenOrientations
1.0,
*Solid Section, ElSet=Yarn3, Material=Mat1, Orientation=TexGenOrientations
1.0,
*Solid Section, ElSet=Yarn4, Material=Mat1, Orientation=TexGenOrientations
1.0,
*Solid Section, ElSet=Yarn5, Material=Mat1, Orientation=TexGenOrientations
1.0,
*Solid Section, ElSet=Yarn6, Material=Mat1, Orientation=TexGenOrientations
1.0,
*Solid Section, ElSet=Yarn7, Material=Mat1, Orientation=TexGenOrientations
1.0,
*Solid Section, ElSet=Yarn8, Material=Mat1, Orientation=TexGenOrientations
1.0,
*Solid Section, ElSet=Yarn9, Material=Mat1, Orientation=TexGenOrientations
1.0,
*Solid Section, ElSet=Yarn10, Material=Mat1, Orientation=TexGenOrientations
1.0,
*Solid Section, ElSet=Yarn11, Material=Mat1, Orientation=TexGenOrientations
1.0,
*Solid Section, ElSet=Yarn12, Material=Mat1, Orientation=TexGenOrientations
1.0,
*Solid Section, ElSet=Yarn13, Material=Mat1, Orientation=TexGenOrientations
1.0,
*Solid Section, ElSet=Yarn14, Material=Mat1, Orientation=TexGenOrientations
1.0,
*Solid Section, ElSet=Yarn15, Material=Mat1, Orientation=TexGenOrientations
1.0,
*Solid Section, ElSet=Yarn16, Material=Mat1, Orientation=TexGenOrientations
1.0,
*Solid Section, ElSet=Yarn17, Material=Mat1, Orientation=TexGenOrientations
1.0,
*Solid Section, ElSet=Yarn18, Material=Mat1, Orientation=TexGenOrientations
1.0,
*Solid Section, ElSet=Yarn19, Material=Mat1, Orientation=TexGenOrientations
1.0,
*Solid Section, ElSet=Yarn20, Material=Mat1, Orientation=TexGenOrientations
1.0,
*Solid Section, ElSet=Yarn21, Material=Mat1, Orientation=TexGenOrientations
1.0,
************************************
*** PERIODIC BOUNDARY CONDITIONS ***
************************************
*** ConstraintsDriver0 = e_x
*** ConstraintsDriver1 = e_y
*** ConstraintsDriver2 = e_z
*** ConstraintsDriver3 = e_xy
*** ConstraintsDriver4 = e_xz
*** ConstraintsDriver5 = e_yz
*Node
859, 0, 0, 0
*NSet, NSet=ConstraintsDriver0
859
*Node
860, 0, 0, 0
*NSet, NSet=ConstraintsDriver1
860
*Node
861, 0, 0, 0
*NSet, NSet=ConstraintsDriver2
861
*Node
862, 0, 0, 0
*NSet, NSet=ConstraintsDriver3
862
*Node
863, 0, 0, 0
*NSet, NSet=ConstraintsDriver4
863
*Node
864, 0, 0, 0
*NSet, NSet=ConstraintsDriver5
864
*NSet, NSet=FaceA, Unsorted
169, 182, 195, 208, 221, 234, 247, 260, 273, 312, 325, 338, 351, 364, 377, 390
403, 416, 455, 468, 481, 494, 507, 520, 533, 546, 559, 598, 611, 624, 637, 650
663, 676, 689, 702
*NSet, NSet=FaceB, Unsorted
157, 170, 183, 196, 209, 222, 235, 248, 261, 300, 313, 326, 339, 352, 365, 378
391, 404, 443, 456, 469, 482, 495, 508, 521, 534, 547, 586, 599, 612, 625, 638
651, 664, 677, 690
*NSet, NSet=FaceC, Unsorted
275, 276, 277, 278, 279, 280, 281, 282, 283, 284, 285, 418, 419, 420, 421, 422
423, 424, 425, 426, 427, 428, 561, 562, 563, 564, 565, 566, 567, 568, 569, 570
571, 704, 705, 706, 707, 708, 709, 710, 711, 712, 713, 714
*NSet, NSet=FaceD, Unsorted
145, 146, 147, 148, 149, 150, 151, 152, 153, 154, 155, 288, 289, 290, 291, 292
293, 294, 295, 296, 297, 298, 431, 432, 433, 434, 435, 436, 437, 438, 439, 440
441, 574, 575, 576, 577, 578, 579, 580, 581, 582, 583, 584
*NSet, NSet=FaceE, Unsorted
730, 731, 732, 733, 734, 735, 736, 737, 738, 739, 740, 743, 744, 745, 746, 747
748, 749, 750, 751, 752, 753, 756, 757, 758, 759, 760, 761, 762, 763, 764, 765
766, 769, 770, 771, 772, 773, 774, 775, 776, 777, 778, 779, 782, 783, 784, 785
786, 787, 788, 789, 790, 791, 792, 795, 796, 797, 798, 799, 800, 801, 802, 803
804, 805, 808, 809, 810, 811, 812, 813, 814, 815, 816, 817, 818, 821, 822, 823
824, 825, 826, 827, 828, 829, 830, 831, 834, 835, 836, 837, 838, 839, 840, 841
842, 843, 844
*NSet, NSet=FaceF, Unsorted
15, 16, 17, 18, 19, 20, 21, 22, 23, 24, 25, 28, 29, 30, 31, 32
33, 34, 35, 36, 37, 38, 41, 42, 43, 44, 45, 46, 47, 48, 49, 50
51, 54, 55, 56, 57, 58, 59, 60, 61, 62, 63, 64, 67, 68, 69, 70
71, 72, 73, 74, 75, 76, 77, 80, 81, 82, 83, 84, 85, 86, 87, 88
89, 90, 93, 94, 95, 96, 97, 98, 99, 100, 101, 102, 103, 106, 107, 108
109, 110, 111, 112, 113, 114, 115, 116, 119, 120, 121, 122, 123, 124, 125, 126
127, 128, 129
*NSet, NSet=Edge1, Unsorted
144, 287, 430, 573
*NSet, NSet=Edge2, Unsorted
156, 299, 442, 585
*NSet, NSet=Edge3, Unsorted
286, 429, 572, 715
*NSet, NSet=Edge4, Unsorted
274, 417, 560, 703
*NSet, NSet=Edge5, Unsorted
14, 27, 40, 53, 66, 79, 92, 105, 118
*NSet, NSet=Edge6, Unsorted
26, 39, 52, 65, 78, 91, 104, 117, 130
*NSet, NSet=Edge7, Unsorted
741, 754, 767, 780, 793, 806, 819, 832, 845
*NSet, NSet=Edge8, Unsorted
729, 742, 755, 768, 781, 794, 807, 820, 833
*NSet, NSet=Edge9, Unsorted
2, 3, 4, 5, 6, 7, 8, 9, 10, 11, 12
*NSet, NSet=Edge10, Unsorted
132, 133, 134, 135, 136, 137, 138, 139, 140, 141, 142
*NSet, NSet=Edge11, Unsorted
847, 848, 849, 850, 851, 852, 853, 854, 855, 856, 857
*NSet, NSet=Edge12, Unsorted
717, 718, 719, 720, 721, 722, 723, 724, 725, 726, 727
*NSet, NSet=MasterNode1, Unsorted
1
*NSet, NSet=MasterNode2, Unsorted
13
*NSet, NSet=MasterNode3, Unsorted
143
*NSet, NSet=MasterNode4, Unsorted
131
*NSet, NSet=MasterNode5, Unsorted
716
*NSet, NSet=MasterNode6, Unsorted
728
*NSet, NSet=MasterNode7, Unsorted
858
*NSet, NSet=MasterNode8, Unsorted
846
***************************
*** BOUNDARY CONDITIONS ***
***************************
*** Name: Translation stop Vertex 1 Type: Displacement/Rotation
*Boundary
MasterNode1, 1, 1
MasterNode1, 2, 2
MasterNode1, 3, 3

*****************
*** EQUATIONS ***
*****************
*Equation
3
FaceA, 1, 1.0, FaceB, 1, -1.0, ConstraintsDriver0, 1, -2
*Equation
2
FaceA, 2, 1.0, FaceB, 2, -1.0
*Equation
2
FaceA, 3, 1.0, FaceB, 3, -1.0
*Equation
3
FaceC, 1, 1.0, FaceD, 1, -1.0, ConstraintsDriver3, 1, -7
*Equation
3
FaceC, 2, 1.0, FaceD, 2, -1.0, ConstraintsDriver1, 1, -7
*Equation
2
FaceC, 3, 1.0, FaceD, 3, -1.0
*Equation
3
FaceE, 1, 1.0, FaceF, 1, -1.0, ConstraintsDriver4, 1, -1
*Equation
3
FaceE, 2, 1.0, FaceF, 2, -1.0, ConstraintsDriver5, 1, -1
*Equation
3
FaceE, 3, 1.0, FaceF, 3, -1.0, ConstraintsDriver2, 1, -1
*Equation
3
Edge2, 1, 1.0, Edge1, 1, -1.0, ConstraintsDriver0, 1, -2
*Equation
2
Edge2, 2, 1.0, Edge1, 2, -1.0
*Equation
2
Edge2, 3, 1.0, Edge1, 3, -1.0
*Equation
4
Edge3, 1, 1.0, Edge1, 1, -1.0, ConstraintsDriver0, 1, -2, ConstraintsDriver3, 1, -7
*Equation
3
Edge3, 2, 1.0, Edge1, 2, -1.0, ConstraintsDriver1, 1, -7
*Equation
2
Edge3, 3, 1.0, Edge1, 3, -1.0
*Equation
3
Edge4, 1, 1.0, Edge1, 1, -1.0, ConstraintsDriver3, 1, -7
*Equation
3
Edge4, 2, 1.0, Edge1, 2, -1.0, ConstraintsDriver1, 1, -7
*Equation
2
Edge4, 3, 1.0, Edge1, 3, -1.0
*Equation
3
Edge6, 1, 1.0, Edge5, 1, -1.0, ConstraintsDriver0, 1, -2
*Equation
2
Edge6, 2, 1.0, Edge5, 2, -1.0
*Equation
2
Edge6, 3, 1.0, Edge5, 3, -1.0
*Equation
4
Edge7, 1, 1.0, Edge5, 1, -1.0, ConstraintsDriver4, 1, -1, ConstraintsDriver0, 1, -2
*Equation
3
Edge7, 2, 1.0, Edge5, 2, -1.0, ConstraintsDriver5, 1, -1
*Equation
3
Edge7, 3, 1.0, Edge5, 3, -1.0, ConstraintsDriver2, 1, -1
*Equation
3
Edge8, 1, 1.0, Edge5, 1, -1.0, ConstraintsDriver4, 1, -1
*Equation
3
Edge8, 2, 1.0, Edge5, 2, -1.0, ConstraintsDriver5, 1, -1
*Equation
3
Edge8, 3, 1.0, Edge5, 3, -1.0, ConstraintsDriver2, 1, -1
*Equation
3
Edge10, 1, 1.0, Edge9, 1, -1.0, ConstraintsDriver3, 1, -7
*Equation
3
Edge10, 2, 1.0, Edge9, 2, -1.0, ConstraintsDriver1, 1, -7
*Equation
2
Edge10, 3, 1.0, Edge9, 3, -1.0
*Equation
4
Edge11, 1, 1.0, Edge9, 1, -1.0, ConstraintsDriver3, 1, -7, ConstraintsDriver4, 1, -1
*Equation
4
Edge11, 2, 1.0, Edge9, 2, -1.0, ConstraintsDriver1, 1, -7, ConstraintsDriver5, 1, -1
*Equation
3
Edge11, 3, 1.0, Edge9, 3, -1.0, ConstraintsDriver2, 1, -1
*Equation
3
Edge12, 1, 1.0, Edge9, 1, -1.0, ConstraintsDriver4, 1, -1
*Equation
3
Edge12, 2, 1.0, Edge9, 2, -1.0, ConstraintsDriver5, 1, -1
*Equation
3
Edge12, 3, 1.0, Edge9, 3, -1.0, ConstraintsDriver2, 1, -1
*Equation
3
MasterNode2, 1, 1.0, MasterNode1, 1, -1.0, ConstraintsDriver0, 1, -2
*Equation
2
MasterNode2, 2, 1.0, MasterNode1, 2, -1.0
*Equation
2
MasterNode2, 3, 1.0, MasterNode1, 3, -1.0
*Equation
4
MasterNode3, 1, 1.0, MasterNode1, 1, -1.0, ConstraintsDriver0, 1, -2, ConstraintsDriver3, 1, -7
*Equation
3
MasterNode3, 2, 1.0, MasterNode1, 2, -1.0, ConstraintsDriver1, 1, -7
*Equation
2
MasterNode3, 3, 1.0, MasterNode1, 3, -1.0
*Equation
3
MasterNode4, 1, 1.0, MasterNode1, 1, -1.0, ConstraintsDriver3, 1, -7
*Equation
3
MasterNode4, 2, 1.0, MasterNode1, 2, -1.0, ConstraintsDriver1, 1, -7
*Equation
2
MasterNode4, 3, 1.0, MasterNode1, 3, -1.0
*Equation
3
MasterNode5, 1, 1.0, MasterNode1, 1, -1.0, ConstraintsDriver4, 1, -1
*Equation
3
MasterNode5, 2, 1.0, MasterNode1, 2, -1.0, ConstraintsDriver5, 1, -1
*Equation
3
MasterNode5, 3, 1.0, MasterNode1, 3, -1.0, ConstraintsDriver2, 1, -1
*Equation
4
MasterNode6, 1, 1.0, MasterNode1, 1, -1.0, ConstraintsDriver4, 1, -1, ConstraintsDriver0, 1, -2
*Equation
3
MasterNode6, 2, 1.0, MasterNode1, 2, -1.0, ConstraintsDriver5, 1, -1
*Equation
3
MasterNode6, 3, 1.0, MasterNode1, 3, -1.0, ConstraintsDriver2, 1, -1
*Equation
5
MasterNode7, 1, 1.0, MasterNode1, 1, -1.0, ConstraintsDriver0, 1, -2, ConstraintsDriver4, 1, -1,
ConstraintsDriver3, 1, -7
*Equation
4
MasterNode7, 2, 1.0, MasterNode1, 2, -1.0, ConstraintsDriver1, 1, -7, ConstraintsDriver5, 1, -1
*Equation
3
MasterNode7, 3, 1.0, MasterNode1, 3, -1.0, ConstraintsDriver2, 1, -1
*Equation
4
MasterNode8, 1, 1.0, MasterNode1, 1, -1.0, ConstraintsDriver3, 1, -7, ConstraintsDriver4, 1, -1
*Equation
4
MasterNode8, 2, 1.0, MasterNode1, 2, -1.0, ConstraintsDriver1, 1, -7, ConstraintsDriver5, 1, -1
*Equation
3
MasterNode8, 3, 1.0, MasterNode1, 3, -1.0, ConstraintsDriver2, 1, -1
** MATERIALS
*Material, name=Mat0
*Conductivity, TYPE=ORTHO
401.,
**
*Material, name=Mat1
*Conductivity, TYPE=ORTHO
73.,
**
** PHYSICAL CONSTANTS
**
*Physical Constants, absolute zero=273.15, stefan boltzmann=5.67e-08
** ----------------------------------------------------------------
**
** STEP: Heating Step
**
*Step, name="Heating Step", nlgeom=NO
Apply heat in this step
*Heat Transfer, steady state, deltmx=0.
1., 1., 1e-05, 1.,
**
** BOUNDARY CONDITIONS
**
** Name: Const temp surf 1 Type: Temperature
*Boundary
FaceD, 11, 11, 700.
** Name: Const temp surf2 Type: Temperature
*Boundary
FaceC, 11, 11, 500.
**
** INTERACTIONS
**
** Interaction: Convection 1
*Sfilm
FaceB1, F, 300., 13.
** Interaction: Convection 2
*Sfilm
FaceA1, F, 300., 13.
** Interaction: Convection 3
*Sfilm
FaceE1, F, 300., 13.
** Interaction: Convection 4
*Sfilm
FaceF1, F, 300., 13.
** Interaction: Radiation 1
*Sradiate
FaceB1, R, 300., 0
** Interaction: Radiation 2
*Sradiate
FaceA1, R, 300., 0
** Interaction: Radiation 3
*Sradiate
FaceE1, R, 300., 0
** Interaction: Radiation 4
*Sradiate
FaceF1, R, 300., 0
**
** OUTPUT REQUESTS
**
*Restart, write, frequency=0
**
** FIELD OUTPUT: F-Output-1
**
*Output, field, variable=PRESELECT
*Output, history, frequency=0
*End Step
*******************
